ch3_bdc_cu2_paddlewheel_pillared_sql_bipy
AtomForge visual export

256278  0  0  0  0            999 V2000
   10.9926   10.9911    5.4944 Cu  0  0  0  0  0  0  0  0  0  0  0  0
   10.9926   -0.0019    5.4944 Cu  0  0  0  0  0  0  0  0  0  0  0  0
   10.9926   21.9840    5.4944 Cu  0  0  0  0  0  0  0  0  0  0  0  0
   -0.0004   10.9911    5.4944 Cu  0  0  0  0  0  0  0  0  0  0  0  0
   21.9856   10.9911    5.4944 Cu  0  0  0  0  0  0  0  0  0  0  0  0
   -0.0004   -0.0019    5.4944 Cu  0  0  0  0  0  0  0  0  0  0  0  0
   -0.0004   21.9840    5.4944 Cu  0  0  0  0  0  0  0  0  0  0  0  0
   21.9856   -0.0019    5.4944 Cu  0  0  0  0  0  0  0  0  0  0  0  0
   21.9856   21.9840    5.4944 Cu  0  0  0  0  0  0  0  0  0  0  0  0
   10.9926   10.9911    8.3056 Cu  0  0  0  0  0  0  0  0  0  0  0  0
   10.9926   -0.0019    8.3056 Cu  0  0  0  0  0  0  0  0  0  0  0  0
   10.9926   21.9840    8.3056 Cu  0  0  0  0  0  0  0  0  0  0  0  0
   -0.0004   10.9911    8.3056 Cu  0  0  0  0  0  0  0  0  0  0  0  0
   21.9856   10.9911    8.3056 Cu  0  0  0  0  0  0  0  0  0  0  0  0
   -0.0004   -0.0019    8.3056 Cu  0  0  0  0  0  0  0  0  0  0  0  0
   -0.0004   21.9840    8.3056 Cu  0  0  0  0  0  0  0  0  0  0  0  0
   21.9856   -0.0019    8.3056 Cu  0  0  0  0  0  0  0  0  0  0  0  0
   21.9856   21.9840    8.3056 Cu  0  0  0  0  0  0  0  0  0  0  0  0
    6.2451    3.3454    6.9000 H   0  0  0  0  0  0  0  0  0  0  0  0
    6.2451   14.3383    6.9000 H   0  0  0  0  0  0  0  0  0  0  0  0
   17.2381    3.3454    6.9000 H   0  0  0  0  0  0  0  0  0  0  0  0
   17.2381   14.3383    6.9000 H   0  0  0  0  0  0  0  0  0  0  0  0
    7.5727    2.5581    7.7817 H   0  0  0  0  0  0  0  0  0  0  0  0
    7.5727   13.5511    7.7817 H   0  0  0  0  0  0  0  0  0  0  0  0
   18.5657    2.5581    7.7817 H   0  0  0  0  0  0  0  0  0  0  0  0
   18.5657   13.5511    7.7817 H   0  0  0  0  0  0  0  0  0  0  0  0
    7.5727    2.5581    6.0183 H   0  0  0  0  0  0  0  0  0  0  0  0
    7.5727   13.5511    6.0183 H   0  0  0  0  0  0  0  0  0  0  0  0
   18.5657    2.5581    6.0183 H   0  0  0  0  0  0  0  0  0  0  0  0
   18.5657   13.5511    6.0183 H   0  0  0  0  0  0  0  0  0  0  0  0
    4.2588    2.1211    6.9000 H   0  0  0  0  0  0  0  0  0  0  0  0
    4.2588   13.1141    6.9000 H   0  0  0  0  0  0  0  0  0  0  0  0
   15.2518    2.1211    6.9000 H   0  0  0  0  0  0  0  0  0  0  0  0
   15.2518   13.1141    6.9000 H   0  0  0  0  0  0  0  0  0  0  0  0
    4.2617    8.8541    6.9000 H   0  0  0  0  0  0  0  0  0  0  0  0
    4.2617   19.8471    6.9000 H   0  0  0  0  0  0  0  0  0  0  0  0
   15.2547    8.8541    6.9000 H   0  0  0  0  0  0  0  0  0  0  0  0
   15.2547   19.8471    6.9000 H   0  0  0  0  0  0  0  0  0  0  0  0
    6.7153    8.8660    6.9000 H   0  0  0  0  0  0  0  0  0  0  0  0
    6.7153   19.8589    6.9000 H   0  0  0  0  0  0  0  0  0  0  0  0
   17.7083    8.8660    6.9000 H   0  0  0  0  0  0  0  0  0  0  0  0
   17.7083   19.8589    6.9000 H   0  0  0  0  0  0  0  0  0  0  0  0
    7.6512    6.2445    6.9000 H   0  0  0  0  0  0  0  0  0  0  0  0
    7.6512   17.2375    6.9000 H   0  0  0  0  0  0  0  0  0  0  0  0
   18.6441    6.2445    6.9000 H   0  0  0  0  0  0  0  0  0  0  0  0
   18.6441   17.2375    6.9000 H   0  0  0  0  0  0  0  0  0  0  0  0
    8.4356    7.5725    7.7817 H   0  0  0  0  0  0  0  0  0  0  0  0
    8.4356   18.5655    7.7817 H   0  0  0  0  0  0  0  0  0  0  0  0
   19.4286    7.5725    7.7817 H   0  0  0  0  0  0  0  0  0  0  0  0
   19.4286   18.5655    7.7817 H   0  0  0  0  0  0  0  0  0  0  0  0
    8.4356    7.5725    6.0183 H   0  0  0  0  0  0  0  0  0  0  0  0
    8.4356   18.5655    6.0183 H   0  0  0  0  0  0  0  0  0  0  0  0
   19.4286    7.5725    6.0183 H   0  0  0  0  0  0  0  0  0  0  0  0
   19.4286   18.5655    6.0183 H   0  0  0  0  0  0  0  0  0  0  0  0
    8.8776    4.2714    6.9000 H   0  0  0  0  0  0  0  0  0  0  0  0
    8.8776   15.2644    6.9000 H   0  0  0  0  0  0  0  0  0  0  0  0
   19.8706    4.2714    6.9000 H   0  0  0  0  0  0  0  0  0  0  0  0
   19.8706   15.2644    6.9000 H   0  0  0  0  0  0  0  0  0  0  0  0
    2.1429    4.2636    6.9000 H   0  0  0  0  0  0  0  0  0  0  0  0
    2.1429   15.2566    6.9000 H   0  0  0  0  0  0  0  0  0  0  0  0
   13.1359    4.2636    6.9000 H   0  0  0  0  0  0  0  0  0  0  0  0
   13.1359   15.2566    6.9000 H   0  0  0  0  0  0  0  0  0  0  0  0
    2.1326    6.7282    6.9000 H   0  0  0  0  0  0  0  0  0  0  0  0
    2.1326   17.7212    6.9000 H   0  0  0  0  0  0  0  0  0  0  0  0
   13.1255    6.7282    6.9000 H   0  0  0  0  0  0  0  0  0  0  0  0
   13.1255   17.7212    6.9000 H   0  0  0  0  0  0  0  0  0  0  0  0
    6.8920   10.9927    6.9000 C   0  0  0  0  0  0  0  0  0  0  0  0
    6.8920   -0.0003    6.9000 C   0  0  0  0  0  0  0  0  0  0  0  0
    6.8920   21.9856    6.9000 C   0  0  0  0  0  0  0  0  0  0  0  0
   17.8850   10.9927    6.9000 C   0  0  0  0  0  0  0  0  0  0  0  0
   17.8850   -0.0003    6.9000 C   0  0  0  0  0  0  0  0  0  0  0  0
   17.8850   21.9856    6.9000 C   0  0  0  0  0  0  0  0  0  0  0  0
    6.1905    1.2053    6.9000 C   0  0  0  0  0  0  0  0  0  0  0  0
    6.1905   12.1983    6.9000 C   0  0  0  0  0  0  0  0  0  0  0  0
   17.1834    1.2053    6.9000 C   0  0  0  0  0  0  0  0  0  0  0  0
   17.1834   12.1983    6.9000 C   0  0  0  0  0  0  0  0  0  0  0  0
    4.7958    1.1841    6.9000 C   0  0  0  0  0  0  0  0  0  0  0  0
    4.7958   12.1771    6.9000 C   0  0  0  0  0  0  0  0  0  0  0  0
   15.7887    1.1841    6.9000 C   0  0  0  0  0  0  0  0  0  0  0  0
   15.7887   12.1771    6.9000 C   0  0  0  0  0  0  0  0  0  0  0  0
    4.0862   10.9863    6.9000 C   0  0  0  0  0  0  0  0  0  0  0  0
    4.0862   -0.0066    6.9000 C   0  0  0  0  0  0  0  0  0  0  0  0
    4.0862   21.9793    6.9000 C   0  0  0  0  0  0  0  0  0  0  0  0
   15.0792   10.9863    6.9000 C   0  0  0  0  0  0  0  0  0  0  0  0
   15.0792   -0.0066    6.9000 C   0  0  0  0  0  0  0  0  0  0  0  0
   15.0792   21.9793    6.9000 C   0  0  0  0  0  0  0  0  0  0  0  0
    4.7919    9.7938    6.9000 C   0  0  0  0  0  0  0  0  0  0  0  0
    4.7919   20.7868    6.9000 C   0  0  0  0  0  0  0  0  0  0  0  0
   15.7848    9.7938    6.9000 C   0  0  0  0  0  0  0  0  0  0  0  0
   15.7848   20.7868    6.9000 C   0  0  0  0  0  0  0  0  0  0  0  0
    6.1833    9.8023    6.9000 C   0  0  0  0  0  0  0  0  0  0  0  0
    6.1833   20.7953    6.9000 C   0  0  0  0  0  0  0  0  0  0  0  0
   17.1763    9.8023    6.9000 C   0  0  0  0  0  0  0  0  0  0  0  0
   17.1763   20.7953    6.9000 C   0  0  0  0  0  0  0  0  0  0  0  0
    8.4277   10.9903    6.9000 C   0  0  0  0  0  0  0  0  0  0  0  0
    8.4277   -0.0026    6.9000 C   0  0  0  0  0  0  0  0  0  0  0  0
    8.4277   21.9833    6.9000 C   0  0  0  0  0  0  0  0  0  0  0  0
   19.4207   10.9903    6.9000 C   0  0  0  0  0  0  0  0  0  0  0  0
   19.4207   -0.0026    6.9000 C   0  0  0  0  0  0  0  0  0  0  0  0
   19.4207   21.9833    6.9000 C   0  0  0  0  0  0  0  0  0  0  0  0
    2.5544   10.9911    6.9000 C   0  0  0  0  0  0  0  0  0  0  0  0
    2.5544   -0.0018    6.9000 C   0  0  0  0  0  0  0  0  0  0  0  0
    2.5544   21.9841    6.9000 C   0  0  0  0  0  0  0  0  0  0  0  0
   13.5474   10.9911    6.9000 C   0  0  0  0  0  0  0  0  0  0  0  0
   13.5474   -0.0018    6.9000 C   0  0  0  0  0  0  0  0  0  0  0  0
   13.5474   21.9841    6.9000 C   0  0  0  0  0  0  0  0  0  0  0  0
    6.9337    2.5037    6.9000 C   0  0  0  0  0  0  0  0  0  0  0  0
    6.9337   13.4966    6.9000 C   0  0  0  0  0  0  0  0  0  0  0  0
   17.9266    2.5037    6.9000 C   0  0  0  0  0  0  0  0  0  0  0  0
   17.9266   13.4966    6.9000 C   0  0  0  0  0  0  0  0  0  0  0  0
    0.0057    6.8968    6.9000 C   0  0  0  0  0  0  0  0  0  0  0  0
   21.9917    6.8968    6.9000 C   0  0  0  0  0  0  0  0  0  0  0  0
    0.0057   17.8898    6.9000 C   0  0  0  0  0  0  0  0  0  0  0  0
   21.9917   17.8898    6.9000 C   0  0  0  0  0  0  0  0  0  0  0  0
   10.9987    6.8968    6.9000 C   0  0  0  0  0  0  0  0  0  0  0  0
   10.9987   17.8898    6.9000 C   0  0  0  0  0  0  0  0  0  0  0  0
    9.7935    6.1957    6.9000 C   0  0  0  0  0  0  0  0  0  0  0  0
    9.7935   17.1886    6.9000 C   0  0  0  0  0  0  0  0  0  0  0  0
   20.7864    6.1957    6.9000 C   0  0  0  0  0  0  0  0  0  0  0  0
   20.7864   17.1886    6.9000 C   0  0  0  0  0  0  0  0  0  0  0  0
    9.8154    4.8018    6.9000 C   0  0  0  0  0  0  0  0  0  0  0  0
    9.8154   15.7947    6.9000 C   0  0  0  0  0  0  0  0  0  0  0  0
   20.8084    4.8018    6.9000 C   0  0  0  0  0  0  0  0  0  0  0  0
   20.8084   15.7947    6.9000 C   0  0  0  0  0  0  0  0  0  0  0  0
    0.0125    4.0911    6.9000 C   0  0  0  0  0  0  0  0  0  0  0  0
   21.9984    4.0911    6.9000 C   0  0  0  0  0  0  0  0  0  0  0  0
    0.0125   15.0841    6.9000 C   0  0  0  0  0  0  0  0  0  0  0  0
   21.9984   15.0841    6.9000 C   0  0  0  0  0  0  0  0  0  0  0  0
   11.0055    4.0911    6.9000 C   0  0  0  0  0  0  0  0  0  0  0  0
   11.0055   15.0841    6.9000 C   0  0  0  0  0  0  0  0  0  0  0  0
    1.2054    4.7974    6.9000 C   0  0  0  0  0  0  0  0  0  0  0  0
    1.2054   15.7904    6.9000 C   0  0  0  0  0  0  0  0  0  0  0  0
   12.1983    4.7974    6.9000 C   0  0  0  0  0  0  0  0  0  0  0  0
   12.1983   15.7904    6.9000 C   0  0  0  0  0  0  0  0  0  0  0  0
    1.1971    6.1896    6.9000 C   0  0  0  0  0  0  0  0  0  0  0  0
    1.1971   17.1826    6.9000 C   0  0  0  0  0  0  0  0  0  0  0  0
   12.1901    6.1896    6.9000 C   0  0  0  0  0  0  0  0  0  0  0  0
   12.1901   17.1826    6.9000 C   0  0  0  0  0  0  0  0  0  0  0  0
    0.0048    8.4313    6.9000 C   0  0  0  0  0  0  0  0  0  0  0  0
   21.9908    8.4313    6.9000 C   0  0  0  0  0  0  0  0  0  0  0  0
    0.0048   19.4242    6.9000 C   0  0  0  0  0  0  0  0  0  0  0  0
   21.9908   19.4242    6.9000 C   0  0  0  0  0  0  0  0  0  0  0  0
   10.9978    8.4313    6.9000 C   0  0  0  0  0  0  0  0  0  0  0  0
   10.9978   19.4242    6.9000 C   0  0  0  0  0  0  0  0  0  0  0  0
    0.0042    2.5580    6.9000 C   0  0  0  0  0  0  0  0  0  0  0  0
   21.9902    2.5580    6.9000 C   0  0  0  0  0  0  0  0  0  0  0  0
    0.0042   13.5510    6.9000 C   0  0  0  0  0  0  0  0  0  0  0  0
   21.9902   13.5510    6.9000 C   0  0  0  0  0  0  0  0  0  0  0  0
   10.9972    2.5580    6.9000 C   0  0  0  0  0  0  0  0  0  0  0  0
   10.9972   13.5510    6.9000 C   0  0  0  0  0  0  0  0  0  0  0  0
    8.4923    6.9340    6.9000 C   0  0  0  0  0  0  0  0  0  0  0  0
    8.4923   17.9270    6.9000 C   0  0  0  0  0  0  0  0  0  0  0  0
   19.4852    6.9340    6.9000 C   0  0  0  0  0  0  0  0  0  0  0  0
   19.4852   17.9270    6.9000 C   0  0  0  0  0  0  0  0  0  0  0  0
    0.0005   10.9930   11.8264 C   0  0  0  0  0  0  0  0  0  0  0  0
   21.9864   10.9930   11.8264 C   0  0  0  0  0  0  0  0  0  0  0  0
    0.0005   -0.0000   11.8264 C   0  0  0  0  0  0  0  0  0  0  0  0
    0.0005   21.9859   11.8264 C   0  0  0  0  0  0  0  0  0  0  0  0
   21.9864   -0.0000   11.8264 C   0  0  0  0  0  0  0  0  0  0  0  0
   21.9864   21.9859   11.8264 C   0  0  0  0  0  0  0  0  0  0  0  0
   10.9935   10.9930   11.8264 C   0  0  0  0  0  0  0  0  0  0  0  0
   10.9935   -0.0000   11.8264 C   0  0  0  0  0  0  0  0  0  0  0  0
   10.9935   21.9859   11.8264 C   0  0  0  0  0  0  0  0  0  0  0  0
    0.0010    0.0000   13.1908 C   0  0  0  0  0  0  0  0  0  0  0  0
    0.0010   21.9859   13.1908 C   0  0  0  0  0  0  0  0  0  0  0  0
   21.9869    0.0000   13.1908 C   0  0  0  0  0  0  0  0  0  0  0  0
   21.9869   21.9859   13.1908 C   0  0  0  0  0  0  0  0  0  0  0  0
    0.0010   10.9930   13.1908 C   0  0  0  0  0  0  0  0  0  0  0  0
   21.9869   10.9930   13.1908 C   0  0  0  0  0  0  0  0  0  0  0  0
   10.9940    0.0000   13.1908 C   0  0  0  0  0  0  0  0  0  0  0  0
   10.9940   21.9859   13.1908 C   0  0  0  0  0  0  0  0  0  0  0  0
   10.9940   10.9930   13.1908 C   0  0  0  0  0  0  0  0  0  0  0  0
    0.0010    0.0000    0.6092 C   0  0  0  0  0  0  0  0  0  0  0  0
    0.0010   21.9859    0.6092 C   0  0  0  0  0  0  0  0  0  0  0  0
   21.9869    0.0000    0.6092 C   0  0  0  0  0  0  0  0  0  0  0  0
   21.9869   21.9859    0.6092 C   0  0  0  0  0  0  0  0  0  0  0  0
    0.0010   10.9930    0.6092 C   0  0  0  0  0  0  0  0  0  0  0  0
   21.9869   10.9930    0.6092 C   0  0  0  0  0  0  0  0  0  0  0  0
   10.9940    0.0000    0.6092 C   0  0  0  0  0  0  0  0  0  0  0  0
   10.9940   21.9859    0.6092 C   0  0  0  0  0  0  0  0  0  0  0  0
   10.9940   10.9930    0.6092 C   0  0  0  0  0  0  0  0  0  0  0  0
    0.0005   10.9930    1.9736 C   0  0  0  0  0  0  0  0  0  0  0  0
   21.9864   10.9930    1.9736 C   0  0  0  0  0  0  0  0  0  0  0  0
    0.0005   -0.0000    1.9736 C   0  0  0  0  0  0  0  0  0  0  0  0
    0.0005   21.9859    1.9736 C   0  0  0  0  0  0  0  0  0  0  0  0
   21.9864   -0.0000    1.9736 C   0  0  0  0  0  0  0  0  0  0  0  0
   21.9864   21.9859    1.9736 C   0  0  0  0  0  0  0  0  0  0  0  0
   10.9935   10.9930    1.9736 C   0  0  0  0  0  0  0  0  0  0  0  0
   10.9935   -0.0000    1.9736 C   0  0  0  0  0  0  0  0  0  0  0  0
   10.9935   21.9859    1.9736 C   0  0  0  0  0  0  0  0  0  0  0  0
   10.9918   10.9929   10.6765 N   0  0  0  0  0  0  0  0  0  0  0  0
   10.9918   -0.0000   10.6765 N   0  0  0  0  0  0  0  0  0  0  0  0
   10.9918   21.9859   10.6765 N   0  0  0  0  0  0  0  0  0  0  0  0
   -0.0011   10.9929   10.6765 N   0  0  0  0  0  0  0  0  0  0  0  0
   21.9848   10.9929   10.6765 N   0  0  0  0  0  0  0  0  0  0  0  0
   -0.0011   -0.0000   10.6765 N   0  0  0  0  0  0  0  0  0  0  0  0
   -0.0011   21.9859   10.6765 N   0  0  0  0  0  0  0  0  0  0  0  0
   21.9848   -0.0000   10.6765 N   0  0  0  0  0  0  0  0  0  0  0  0
   21.9848   21.9859   10.6765 N   0  0  0  0  0  0  0  0  0  0  0  0
   10.9918   10.9929    3.1234 N   0  0  0  0  0  0  0  0  0  0  0  0
   10.9918   -0.0000    3.1234 N   0  0  0  0  0  0  0  0  0  0  0  0
   10.9918   21.9859    3.1234 N   0  0  0  0  0  0  0  0  0  0  0  0
   -0.0011   10.9929    3.1234 N   0  0  0  0  0  0  0  0  0  0  0  0
   21.9848   10.9929    3.1234 N   0  0  0  0  0  0  0  0  0  0  0  0
   -0.0011   -0.0000    3.1234 N   0  0  0  0  0  0  0  0  0  0  0  0
   -0.0011   21.9859    3.1234 N   0  0  0  0  0  0  0  0  0  0  0  0
   21.9848   -0.0000    3.1234 N   0  0  0  0  0  0  0  0  0  0  0  0
   21.9848   21.9859    3.1234 N   0  0  0  0  0  0  0  0  0  0  0  0
    8.9704   10.9901    8.0221 O   0  0  0  0  0  0  0  0  0  0  0  0
    8.9704   -0.0029    8.0221 O   0  0  0  0  0  0  0  0  0  0  0  0
    8.9704   21.9831    8.0221 O   0  0  0  0  0  0  0  0  0  0  0  0
   19.9633   10.9901    8.0221 O   0  0  0  0  0  0  0  0  0  0  0  0
   19.9633   -0.0029    8.0221 O   0  0  0  0  0  0  0  0  0  0  0  0
   19.9633   21.9831    8.0221 O   0  0  0  0  0  0  0  0  0  0  0  0
    8.9704   10.9901    5.7779 O   0  0  0  0  0  0  0  0  0  0  0  0
    8.9704   -0.0029    5.7779 O   0  0  0  0  0  0  0  0  0  0  0  0
    8.9704   21.9831    5.7779 O   0  0  0  0  0  0  0  0  0  0  0  0
   19.9633   10.9901    5.7779 O   0  0  0  0  0  0  0  0  0  0  0  0
   19.9633   -0.0029    5.7779 O   0  0  0  0  0  0  0  0  0  0  0  0
   19.9633   21.9831    5.7779 O   0  0  0  0  0  0  0  0  0  0  0  0
    2.0143   10.9923    8.0227 O   0  0  0  0  0  0  0  0  0  0  0  0
    2.0143   -0.0007    8.0227 O   0  0  0  0  0  0  0  0  0  0  0  0
    2.0143   21.9852    8.0227 O   0  0  0  0  0  0  0  0  0  0  0  0
   13.0073   10.9923    8.0227 O   0  0  0  0  0  0  0  0  0  0  0  0
   13.0073   -0.0007    8.0227 O   0  0  0  0  0  0  0  0  0  0  0  0
   13.0073   21.9852    8.0227 O   0  0  0  0  0  0  0  0  0  0  0  0
    2.0143   10.9923    5.7773 O   0  0  0  0  0  0  0  0  0  0  0  0
    2.0143   -0.0007    5.7773 O   0  0  0  0  0  0  0  0  0  0  0  0
    2.0143   21.9852    5.7773 O   0  0  0  0  0  0  0  0  0  0  0  0
   13.0073   10.9923    5.7773 O   0  0  0  0  0  0  0  0  0  0  0  0
   13.0073   -0.0007    5.7773 O   0  0  0  0  0  0  0  0  0  0  0  0
   13.0073   21.9852    5.7773 O   0  0  0  0  0  0  0  0  0  0  0  0
    0.0021    8.9729    8.0223 O   0  0  0  0  0  0  0  0  0  0  0  0
   21.9880    8.9729    8.0223 O   0  0  0  0  0  0  0  0  0  0  0  0
    0.0021   19.9659    8.0223 O   0  0  0  0  0  0  0  0  0  0  0  0
   21.9880   19.9659    8.0223 O   0  0  0  0  0  0  0  0  0  0  0  0
   10.9951    8.9729    8.0223 O   0  0  0  0  0  0  0  0  0  0  0  0
   10.9951   19.9659    8.0223 O   0  0  0  0  0  0  0  0  0  0  0  0
    0.0021    8.9729    5.7777 O   0  0  0  0  0  0  0  0  0  0  0  0
   21.9880    8.9729    5.7777 O   0  0  0  0  0  0  0  0  0  0  0  0
    0.0021   19.9659    5.7777 O   0  0  0  0  0  0  0  0  0  0  0  0
   21.9880   19.9659    5.7777 O   0  0  0  0  0  0  0  0  0  0  0  0
   10.9951    8.9729    5.7777 O   0  0  0  0  0  0  0  0  0  0  0  0
   10.9951   19.9659    5.7777 O   0  0  0  0  0  0  0  0  0  0  0  0
   10.9929    2.0169    8.0225 O   0  0  0  0  0  0  0  0  0  0  0  0
   10.9929   13.0099    8.0225 O   0  0  0  0  0  0  0  0  0  0  0  0
   -0.0001    2.0169    8.0225 O   0  0  0  0  0  0  0  0  0  0  0  0
   21.9859    2.0169    8.0225 O   0  0  0  0  0  0  0  0  0  0  0  0
   -0.0001   13.0099    8.0225 O   0  0  0  0  0  0  0  0  0  0  0  0
   21.9859   13.0099    8.0225 O   0  0  0  0  0  0  0  0  0  0  0  0
   10.9929    2.0169    5.7775 O   0  0  0  0  0  0  0  0  0  0  0  0
   10.9929   13.0099    5.7775 O   0  0  0  0  0  0  0  0  0  0  0  0
   -0.0001    2.0169    5.7775 O   0  0  0  0  0  0  0  0  0  0  0  0
   21.9859    2.0169    5.7775 O   0  0  0  0  0  0  0  0  0  0  0  0
   -0.0001   13.0099    5.7775 O   0  0  0  0  0  0  0  0  0  0  0  0
   21.9859   13.0099    5.7775 O   0  0  0  0  0  0  0  0  0  0  0  0
  1200  1  0  0  0  0
  1215  1  0  0  0  0
  1230  1  0  0  0  0
  1243  1  0  0  0  0
  1252  1  0  0  0  0
  2201  1  0  0  0  0
  2216  1  0  0  0  0
  2231  1  0  0  0  0
  2251  1  0  0  0  0
  3202  1  0  0  0  0
  3217  1  0  0  0  0
  3232  1  0  0  0  0
  3244  1  0  0  0  0
  4203  1  0  0  0  0
  4227  1  0  0  0  0
  4239  1  0  0  0  0
  4255  1  0  0  0  0
  5204  1  0  0  0  0
  5218  1  0  0  0  0
  5240  1  0  0  0  0
  5256  1  0  0  0  0
  6205  1  0  0  0  0
  6228  1  0  0  0  0
  6253  1  0  0  0  0
  7206  1  0  0  0  0
  7229  1  0  0  0  0
  7241  1  0  0  0  0
  8207  1  0  0  0  0
  8219  1  0  0  0  0
  8254  1  0  0  0  0
  9208  1  0  0  0  0
  9220  1  0  0  0  0
  9242  1  0  0  0  0
 10191  1  0  0  0  0
 10209  1  0  0  0  0
 10224  1  0  0  0  0
 10237  1  0  0  0  0
 10246  1  0  0  0  0
 11192  1  0  0  0  0
 11210  1  0  0  0  0
 11225  1  0  0  0  0
 11245  1  0  0  0  0
 12193  1  0  0  0  0
 12211  1  0  0  0  0
 12226  1  0  0  0  0
 12238  1  0  0  0  0
 13194  1  0  0  0  0
 13221  1  0  0  0  0
 13233  1  0  0  0  0
 13249  1  0  0  0  0
 14195  1  0  0  0  0
 14212  1  0  0  0  0
 14234  1  0  0  0  0
 14250  1  0  0  0  0
 15196  1  0  0  0  0
 15222  1  0  0  0  0
 15247  1  0  0  0  0
 16197  1  0  0  0  0
 16223  1  0  0  0  0
 16235  1  0  0  0  0
 17198  1  0  0  0  0
 17213  1  0  0  0  0
 17248  1  0  0  0  0
 18199  1  0  0  0  0
 18214  1  0  0  0  0
 18236  1  0  0  0  0
 19107  1  0  0  0  0
 20108  1  0  0  0  0
 21109  1  0  0  0  0
 22110  1  0  0  0  0
 23107  1  0  0  0  0
 24108  1  0  0  0  0
 25109  1  0  0  0  0
 26110  1  0  0  0  0
 27107  1  0  0  0  0
 28108  1  0  0  0  0
 29109  1  0  0  0  0
 30110  1  0  0  0  0
 31 77  1  0  0  0  0
 32 78  1  0  0  0  0
 33 79  1  0  0  0  0
 34 80  1  0  0  0  0
 35 87  1  0  0  0  0
 36 88  1  0  0  0  0
 37 89  1  0  0  0  0
 38 90  1  0  0  0  0
 39 91  1  0  0  0  0
 40 92  1  0  0  0  0
 41 93  1  0  0  0  0
 42 94  1  0  0  0  0
 43151  1  0  0  0  0
 44152  1  0  0  0  0
 45153  1  0  0  0  0
 46154  1  0  0  0  0
 47151  1  0  0  0  0
 48152  1  0  0  0  0
 49153  1  0  0  0  0
 50154  1  0  0  0  0
 51151  1  0  0  0  0
 52152  1  0  0  0  0
 53153  1  0  0  0  0
 54154  1  0  0  0  0
 55121  1  0  0  0  0
 56122  1  0  0  0  0
 57123  1  0  0  0  0
 58124  1  0  0  0  0
 59131  1  0  0  0  0
 60132  1  0  0  0  0
 61133  1  0  0  0  0
 62134  1  0  0  0  0
 63135  1  0  0  0  0
 64136  1  0  0  0  0
 65137  1  0  0  0  0
 66138  1  0  0  0  0
 67 74  1  0  0  0  0
 67 91  1  0  0  0  0
 67 95  1  0  0  0  0
 68 73  1  0  0  0  0
 68 96  1  0  0  0  0
 69 92  1  0  0  0  0
 69 97  1  0  0  0  0
 70 76  1  0  0  0  0
 70 93  1  0  0  0  0
 70 98  1  0  0  0  0
 71 75  1  0  0  0  0
 71 99  1  0  0  0  0
 72 94  1  0  0  0  0
 72100  1  0  0  0  0
 73 77  1  0  0  0  0
 73107  1  0  0  0  0
 74 78  1  0  0  0  0
 74108  1  0  0  0  0
 75 79  1  0  0  0  0
 75109  1  0  0  0  0
 76 80  1  0  0  0  0
 76110  1  0  0  0  0
 77 82  1  0  0  0  0
 78 81  1  0  0  0  0
 79 85  1  0  0  0  0
 80 84  1  0  0  0  0
 81 87  1  0  0  0  0
 81101  1  0  0  0  0
 82102  1  0  0  0  0
 83 88  1  0  0  0  0
 83103  1  0  0  0  0
 84 89  1  0  0  0  0
 84104  1  0  0  0  0
 85105  1  0  0  0  0
 86 90  1  0  0  0  0
 86106  1  0  0  0  0
 87 91  1  0  0  0  0
 88 92  1  0  0  0  0
 89 93  1  0  0  0  0
 90 94  1  0  0  0  0
 95209  1  0  0  0  0
 95215  1  0  0  0  0
 96210  1  0  0  0  0
 96216  1  0  0  0  0
 97211  1  0  0  0  0
 97217  1  0  0  0  0
 98212  1  0  0  0  0
 98218  1  0  0  0  0
 99213  1  0  0  0  0
 99219  1  0  0  0  0
100214  1  0  0  0  0
100220  1  0  0  0  0
101221  1  0  0  0  0
101227  1  0  0  0  0
102222  1  0  0  0  0
102228  1  0  0  0  0
103223  1  0  0  0  0
103229  1  0  0  0  0
104224  1  0  0  0  0
104230  1  0  0  0  0
105225  1  0  0  0  0
105231  1  0  0  0  0
106226  1  0  0  0  0
106232  1  0  0  0  0
111135  1  0  0  0  0
111139  1  0  0  0  0
112119  1  0  0  0  0
112140  1  0  0  0  0
113136  1  0  0  0  0
113141  1  0  0  0  0
114120  1  0  0  0  0
114142  1  0  0  0  0
115117  1  0  0  0  0
115137  1  0  0  0  0
115143  1  0  0  0  0
116118  1  0  0  0  0
116138  1  0  0  0  0
116144  1  0  0  0  0
117121  1  0  0  0  0
117151  1  0  0  0  0
118122  1  0  0  0  0
118152  1  0  0  0  0
119123  1  0  0  0  0
119153  1  0  0  0  0
120124  1  0  0  0  0
120154  1  0  0  0  0
121129  1  0  0  0  0
122130  1  0  0  0  0
123126  1  0  0  0  0
124128  1  0  0  0  0
125131  1  0  0  0  0
125145  1  0  0  0  0
126146  1  0  0  0  0
127132  1  0  0  0  0
127147  1  0  0  0  0
128148  1  0  0  0  0
129133  1  0  0  0  0
129149  1  0  0  0  0
130134  1  0  0  0  0
130150  1  0  0  0  0
131135  1  0  0  0  0
132136  1  0  0  0  0
133137  1  0  0  0  0
134138  1  0  0  0  0
139233  1  0  0  0  0
139239  1  0  0  0  0
140234  1  0  0  0  0
140240  1  0  0  0  0
141235  1  0  0  0  0
141241  1  0  0  0  0
142236  1  0  0  0  0
142242  1  0  0  0  0
143237  1  0  0  0  0
143243  1  0  0  0  0
144238  1  0  0  0  0
144244  1  0  0  0  0
145247  1  0  0  0  0
145253  1  0  0  0  0
146248  1  0  0  0  0
146254  1  0  0  0  0
147249  1  0  0  0  0
147255  1  0  0  0  0
148250  1  0  0  0  0
148256  1  0  0  0  0
149245  1  0  0  0  0
149251  1  0  0  0  0
150246  1  0  0  0  0
150252  1  0  0  0  0
155168  1  0  0  0  0
155194  1  0  0  0  0
156169  1  0  0  0  0
156195  1  0  0  0  0
157164  1  0  0  0  0
157196  1  0  0  0  0
158165  1  0  0  0  0
158197  1  0  0  0  0
159166  1  0  0  0  0
159198  1  0  0  0  0
160167  1  0  0  0  0
160199  1  0  0  0  0
161172  1  0  0  0  0
161191  1  0  0  0  0
162170  1  0  0  0  0
162192  1  0  0  0  0
163171  1  0  0  0  0
163193  1  0  0  0  0
173184  1  0  0  0  0
174185  1  0  0  0  0
175186  1  0  0  0  0
176187  1  0  0  0  0
177182  1  0  0  0  0
178183  1  0  0  0  0
179189  1  0  0  0  0
180190  1  0  0  0  0
181188  1  0  0  0  0
182203  1  0  0  0  0
183204  1  0  0  0  0
184205  1  0  0  0  0
185206  1  0  0  0  0
186207  1  0  0  0  0
187208  1  0  0  0  0
188200  1  0  0  0  0
189201  1  0  0  0  0
190202  1  0  0  0  0
M  END
$$$$
