@<TRIPOS>MOLECULE
ch3_bdc_cu2_paddlewheel_pillared_sql_bipy
132 140 0 0 0
SMALL
NO_CHARGES

@<TRIPOS>ATOM
     1 Cu1        -0.000378    -0.001892     5.494363 Cu   1 RES 0.0000
     2 Cu2        -0.000378    10.991077     5.494363 Cu   1 RES 0.0000
     3 Cu3        10.992591    -0.001892     5.494363 Cu   1 RES 0.0000
     4 Cu4        10.992591    10.991077     5.494363 Cu   1 RES 0.0000
     5 Cu5        -0.000378    -0.001892     8.305646 Cu   1 RES 0.0000
     6 Cu6        -0.000378    10.991077     8.305646 Cu   1 RES 0.0000
     7 Cu7        10.992591    -0.001892     8.305646 Cu   1 RES 0.0000
     8 Cu8        10.992591    10.991077     8.305646 Cu   1 RES 0.0000
     9 H9         6.245083     3.345365     6.900000 H    1 RES 0.0000
    10 H10        7.572718     2.558087     7.781709 H    1 RES 0.0000
    11 H11        7.572718     2.558087     6.018290 H    1 RES 0.0000
    12 H12        4.258822     2.121112     6.900000 H    1 RES 0.0000
    13 H13        4.258822    13.114082     6.900000 H    1 RES 0.0000
    14 H14        4.261711    -2.138885     6.900000 H    1 RES 0.0000
    15 H15        4.261711     8.854084     6.900000 H    1 RES 0.0000
    16 H16        6.715306    -2.126997     6.900000 H    1 RES 0.0000
    17 H17        6.715306     8.865973     6.900000 H    1 RES 0.0000
    18 H18        7.651171     6.244482     6.900000 H    1 RES 0.0000
    19 H19        8.435598     7.572533     7.781688 H    1 RES 0.0000
    20 H20        8.435598     7.572533     6.018312 H    1 RES 0.0000
    21 H21       -2.115360     4.271434     6.900000 H    1 RES 0.0000
    22 H22        8.877609     4.271434     6.900000 H    1 RES 0.0000
    23 H23        2.142938     4.263617     6.900000 H    1 RES 0.0000
    24 H24       13.135908     4.263617     6.900000 H    1 RES 0.0000
    25 H25        2.132557     6.728181     6.900000 H    1 RES 0.0000
    26 H26       13.125526     6.728181     6.900000 H    1 RES 0.0000
    27 C27        6.891985    -0.000293     6.899999 C    1 RES 0.0000
    28 C28        6.891985    10.992676     6.899999 C    1 RES 0.0000
    29 C29        6.190460     1.205282     6.900000 C    1 RES 0.0000
    30 C30        6.190460    12.198252     6.900000 C    1 RES 0.0000
    31 C31        4.795759     1.184150     6.900000 C    1 RES 0.0000
    32 C32        4.795759    12.177119     6.900000 C    1 RES 0.0000
    33 C33        4.086239    -0.006629     6.899999 C    1 RES 0.0000
    34 C34        4.086239    10.986341     6.899999 C    1 RES 0.0000
    35 C35        4.791880    -1.199162     6.900000 C    1 RES 0.0000
    36 C36        4.791880     9.793807     6.900000 C    1 RES 0.0000
    37 C37        6.183314    -1.190683     6.900000 C    1 RES 0.0000
    38 C38        6.183314     9.802286     6.900000 C    1 RES 0.0000
    39 C39        8.427711    -0.002628     6.899998 C    1 RES 0.0000
    40 C40        8.427711    10.990341     6.899998 C    1 RES 0.0000
    41 C41        2.554413    -0.001839     6.899998 C    1 RES 0.0000
    42 C42        2.554413    10.991130     6.899998 C    1 RES 0.0000
    43 C43        6.933673     2.503676     6.900000 C    1 RES 0.0000
    44 C44        0.005722     6.896797     6.899999 C    1 RES 0.0000
    45 C45       10.998691     6.896797     6.899999 C    1 RES 0.0000
    46 C46       -1.199498     6.195665     6.900000 C    1 RES 0.0000
    47 C47        9.793471     6.195665     6.900000 C    1 RES 0.0000
    48 C48       -1.177531     4.801778     6.900000 C    1 RES 0.0000
    49 C49        9.815438     4.801778     6.900000 C    1 RES 0.0000
    50 C50        0.012485     4.091112     6.899999 C    1 RES 0.0000
    51 C51       11.005454     4.091112     6.899999 C    1 RES 0.0000
    52 C52        1.205364     4.797385     6.900000 C    1 RES 0.0000
    53 C53       12.198333     4.797385     6.900000 C    1 RES 0.0000
    54 C54        1.197105     6.189643     6.900000 C    1 RES 0.0000
    55 C55       12.190075     6.189643     6.900000 C    1 RES 0.0000
    56 C56        0.004840     8.431260     6.899998 C    1 RES 0.0000
    57 C57       10.997810     8.431260     6.899998 C    1 RES 0.0000
    58 C58        0.004238     2.557992     6.899998 C    1 RES 0.0000
    59 C59       10.997208     2.557992     6.899998 C    1 RES 0.0000
    60 C60        8.492270     6.933983     6.900000 C    1 RES 0.0000
    61 C61        0.000484    -0.000013    -1.973557 C    1 RES 0.0000
    62 C62        0.000484    -0.000013    11.826443 C    1 RES 0.0000
    63 C63        0.000484    10.992957    -1.973557 C    1 RES 0.0000
    64 C64        0.000484    10.992957    11.826443 C    1 RES 0.0000
    65 C65       10.993454    -0.000013    -1.973557 C    1 RES 0.0000
    66 C66       10.993454    -0.000013    11.826443 C    1 RES 0.0000
    67 C67       10.993454    10.992957    -1.973557 C    1 RES 0.0000
    68 C68       10.993454    10.992957    11.826443 C    1 RES 0.0000
    69 C69        0.000985     0.000008    -0.609159 C    1 RES 0.0000
    70 C70        0.000985     0.000008    13.190841 C    1 RES 0.0000
    71 C71        0.000985    10.992978    -0.609159 C    1 RES 0.0000
    72 C72        0.000985    10.992978    13.190841 C    1 RES 0.0000
    73 C73       10.993955     0.000008    -0.609159 C    1 RES 0.0000
    74 C74       10.993955     0.000008    13.190841 C    1 RES 0.0000
    75 C75       10.993955    10.992978    -0.609159 C    1 RES 0.0000
    76 C76       10.993955    10.992978    13.190841 C    1 RES 0.0000
    77 C77        0.000986     0.000008     0.609158 C    1 RES 0.0000
    78 C78        0.000986     0.000008    14.409158 C    1 RES 0.0000
    79 C79        0.000986    10.992978     0.609158 C    1 RES 0.0000
    80 C80        0.000986    10.992978    14.409158 C    1 RES 0.0000
    81 C81       10.993955     0.000008     0.609158 C    1 RES 0.0000
    82 C82       10.993955     0.000008    14.409158 C    1 RES 0.0000
    83 C83       10.993955    10.992978     0.609158 C    1 RES 0.0000
    84 C84       10.993955    10.992978    14.409158 C    1 RES 0.0000
    85 C85        0.000484    -0.000013     1.973631 C    1 RES 0.0000
    86 C86        0.000484    -0.000013    15.773631 C    1 RES 0.0000
    87 C87        0.000484    10.992957     1.973631 C    1 RES 0.0000
    88 C88        0.000484    10.992957    15.773631 C    1 RES 0.0000
    89 C89       10.993453    -0.000013     1.973631 C    1 RES 0.0000
    90 C90       10.993453    -0.000013    15.773631 C    1 RES 0.0000
    91 C91       10.993453    10.992957     1.973631 C    1 RES 0.0000
    92 C92       10.993453    10.992957    15.773631 C    1 RES 0.0000
    93 N93       -0.001130    -0.000033    10.676500 N    1 RES 0.0000
    94 N94       -0.001130    10.992936    10.676500 N    1 RES 0.0000
    95 N95       10.991840    -0.000033    10.676500 N    1 RES 0.0000
    96 N96       10.991840    10.992936    10.676500 N    1 RES 0.0000
    97 N97       -0.001130    -0.000033     3.123433 N    1 RES 0.0000
    98 N98       -0.001130    10.992936     3.123433 N    1 RES 0.0000
    99 N99       10.991840    -0.000033     3.123433 N    1 RES 0.0000
   100 N100      10.991840    10.992936     3.123433 N    1 RES 0.0000
   101 O101      -2.022600    -0.002885     8.022124 O    1 RES 0.0000
   102 O102      -2.022600    10.990084     8.022124 O    1 RES 0.0000
   103 O103       8.970370    -0.002885     8.022124 O    1 RES 0.0000
   104 O104       8.970370    10.990084     8.022124 O    1 RES 0.0000
   105 O105      -2.022596    -0.002885     5.777876 O    1 RES 0.0000
   106 O106      -2.022596    10.990084     5.777876 O    1 RES 0.0000
   107 O107       8.970373    -0.002885     5.777876 O    1 RES 0.0000
   108 O108       8.970373    10.990084     5.777876 O    1 RES 0.0000
   109 O109       2.014312    -0.000698     8.022661 O    1 RES 0.0000
   110 O110       2.014312    10.992272     8.022661 O    1 RES 0.0000
   111 O111      13.007282    -0.000698     8.022661 O    1 RES 0.0000
   112 O112      13.007282    10.992272     8.022661 O    1 RES 0.0000
   113 O113       2.014309    -0.000698     5.777338 O    1 RES 0.0000
   114 O114       2.014309    10.992272     5.777338 O    1 RES 0.0000
   115 O115      13.007279    -0.000698     5.777338 O    1 RES 0.0000
   116 O116      13.007279    10.992272     5.777338 O    1 RES 0.0000
   117 O117       0.002087    -2.020030     8.022314 O    1 RES 0.0000
   118 O118       0.002087     8.972939     8.022314 O    1 RES 0.0000
   119 O119      10.995057    -2.020030     8.022314 O    1 RES 0.0000
   120 O120      10.995057     8.972939     8.022314 O    1 RES 0.0000
   121 O121       0.002087    -2.020027     5.777686 O    1 RES 0.0000
   122 O122       0.002087     8.972942     5.777686 O    1 RES 0.0000
   123 O123      10.995057    -2.020027     5.777686 O    1 RES 0.0000
   124 O124      10.995057     8.972942     5.777686 O    1 RES 0.0000
   125 O125      -0.000070     2.016902     8.022460 O    1 RES 0.0000
   126 O126      -0.000070    13.009871     8.022460 O    1 RES 0.0000
   127 O127      10.992900     2.016902     8.022460 O    1 RES 0.0000
   128 O128      10.992900    13.009871     8.022460 O    1 RES 0.0000
   129 O129      -0.000070     2.016899     5.777540 O    1 RES 0.0000
   130 O130      -0.000070    13.009868     5.777540 O    1 RES 0.0000
   131 O131      10.992900     2.016899     5.777540 O    1 RES 0.0000
   132 O132      10.992900    13.009868     5.777540 O    1 RES 0.0000
@<TRIPOS>BOND
     1      1     97 1
     2      1    105 1
     3      1    113 1
     4      1    121 1
     5      1    129 1
     6      2     98 1
     7      2    106 1
     8      2    114 1
     9      2    122 1
    10      2    130 1
    11      3     99 1
    12      3    107 1
    13      3    115 1
    14      3    123 1
    15      3    131 1
    16      4    100 1
    17      4    108 1
    18      4    116 1
    19      4    124 1
    20      4    132 1
    21      5     93 1
    22      5    101 1
    23      5    109 1
    24      5    117 1
    25      5    125 1
    26      6     94 1
    27      6    102 1
    28      6    110 1
    29      6    118 1
    30      6    126 1
    31      7     95 1
    32      7    103 1
    33      7    111 1
    34      7    119 1
    35      7    127 1
    36      8     96 1
    37      8    104 1
    38      8    112 1
    39      8    120 1
    40      8    128 1
    41      9     43 1
    42     10     43 1
    43     11     43 1
    44     12     31 1
    45     13     32 1
    46     14     35 1
    47     15     36 1
    48     16     37 1
    49     17     38 1
    50     18     60 1
    51     19     60 1
    52     20     60 1
    53     21     48 1
    54     22     49 1
    55     23     52 1
    56     24     53 1
    57     25     54 1
    58     26     55 1
    59     27     29 1
    60     27     37 1
    61     27     39 1
    62     28     30 1
    63     28     38 1
    64     28     40 1
    65     29     31 1
    66     29     43 1
    67     30     32 1
    68     31     33 1
    69     32     34 1
    70     33     35 1
    71     33     41 1
    72     34     36 1
    73     34     42 1
    74     35     37 1
    75     36     38 1
    76     39    103 1
    77     39    107 1
    78     40    104 1
    79     40    108 1
    80     41    109 1
    81     41    113 1
    82     42    110 1
    83     42    114 1
    84     44     46 1
    85     44     54 1
    86     44     56 1
    87     45     47 1
    88     45     55 1
    89     45     57 1
    90     46     48 1
    91     47     49 1
    92     47     60 1
    93     48     50 1
    94     49     51 1
    95     50     52 1
    96     50     58 1
    97     51     53 1
    98     51     59 1
    99     52     54 1
   100     53     55 1
   101     56    118 1
   102     56    122 1
   103     57    120 1
   104     57    124 1
   105     58    125 1
   106     58    129 1
   107     59    127 1
   108     59    131 1
   109     61     69 1
   110     62     70 1
   111     62     93 1
   112     63     71 1
   113     64     72 1
   114     64     94 1
   115     65     73 1
   116     66     74 1
   117     66     95 1
   118     67     75 1
   119     68     76 1
   120     68     96 1
   121     69     77 1
   122     70     78 1
   123     71     79 1
   124     72     80 1
   125     73     81 1
   126     74     82 1
   127     75     83 1
   128     76     84 1
   129     77     85 1
   130     78     86 1
   131     79     87 1
   132     80     88 1
   133     81     89 1
   134     82     90 1
   135     83     91 1
   136     84     92 1
   137     85     97 1
   138     87     98 1
   139     89     99 1
   140     91    100 1
