ch3_bdc_cu2_paddlewheel_pillared_sql_bipy
AtomForge visual export

132140  0  0  0  0            999 V2000
   -0.0004   -0.0019    5.4944 Cu  0  0  0  0  0  0  0  0  0  0  0  0
   -0.0004   10.9911    5.4944 Cu  0  0  0  0  0  0  0  0  0  0  0  0
   10.9926   -0.0019    5.4944 Cu  0  0  0  0  0  0  0  0  0  0  0  0
   10.9926   10.9911    5.4944 Cu  0  0  0  0  0  0  0  0  0  0  0  0
   -0.0004   -0.0019    8.3056 Cu  0  0  0  0  0  0  0  0  0  0  0  0
   -0.0004   10.9911    8.3056 Cu  0  0  0  0  0  0  0  0  0  0  0  0
   10.9926   -0.0019    8.3056 Cu  0  0  0  0  0  0  0  0  0  0  0  0
   10.9926   10.9911    8.3056 Cu  0  0  0  0  0  0  0  0  0  0  0  0
    6.2451    3.3454    6.9000 H   0  0  0  0  0  0  0  0  0  0  0  0
    7.5727    2.5581    7.7817 H   0  0  0  0  0  0  0  0  0  0  0  0
    7.5727    2.5581    6.0183 H   0  0  0  0  0  0  0  0  0  0  0  0
    4.2588    2.1211    6.9000 H   0  0  0  0  0  0  0  0  0  0  0  0
    4.2588   13.1141    6.9000 H   0  0  0  0  0  0  0  0  0  0  0  0
    4.2617   -2.1389    6.9000 H   0  0  0  0  0  0  0  0  0  0  0  0
    4.2617    8.8541    6.9000 H   0  0  0  0  0  0  0  0  0  0  0  0
    6.7153   -2.1270    6.9000 H   0  0  0  0  0  0  0  0  0  0  0  0
    6.7153    8.8660    6.9000 H   0  0  0  0  0  0  0  0  0  0  0  0
    7.6512    6.2445    6.9000 H   0  0  0  0  0  0  0  0  0  0  0  0
    8.4356    7.5725    7.7817 H   0  0  0  0  0  0  0  0  0  0  0  0
    8.4356    7.5725    6.0183 H   0  0  0  0  0  0  0  0  0  0  0  0
   -2.1154    4.2714    6.9000 H   0  0  0  0  0  0  0  0  0  0  0  0
    8.8776    4.2714    6.9000 H   0  0  0  0  0  0  0  0  0  0  0  0
    2.1429    4.2636    6.9000 H   0  0  0  0  0  0  0  0  0  0  0  0
   13.1359    4.2636    6.9000 H   0  0  0  0  0  0  0  0  0  0  0  0
    2.1326    6.7282    6.9000 H   0  0  0  0  0  0  0  0  0  0  0  0
   13.1255    6.7282    6.9000 H   0  0  0  0  0  0  0  0  0  0  0  0
    6.8920   -0.0003    6.9000 C   0  0  0  0  0  0  0  0  0  0  0  0
    6.8920   10.9927    6.9000 C   0  0  0  0  0  0  0  0  0  0  0  0
    6.1905    1.2053    6.9000 C   0  0  0  0  0  0  0  0  0  0  0  0
    6.1905   12.1983    6.9000 C   0  0  0  0  0  0  0  0  0  0  0  0
    4.7958    1.1841    6.9000 C   0  0  0  0  0  0  0  0  0  0  0  0
    4.7958   12.1771    6.9000 C   0  0  0  0  0  0  0  0  0  0  0  0
    4.0862   -0.0066    6.9000 C   0  0  0  0  0  0  0  0  0  0  0  0
    4.0862   10.9863    6.9000 C   0  0  0  0  0  0  0  0  0  0  0  0
    4.7919   -1.1992    6.9000 C   0  0  0  0  0  0  0  0  0  0  0  0
    4.7919    9.7938    6.9000 C   0  0  0  0  0  0  0  0  0  0  0  0
    6.1833   -1.1907    6.9000 C   0  0  0  0  0  0  0  0  0  0  0  0
    6.1833    9.8023    6.9000 C   0  0  0  0  0  0  0  0  0  0  0  0
    8.4277   -0.0026    6.9000 C   0  0  0  0  0  0  0  0  0  0  0  0
    8.4277   10.9903    6.9000 C   0  0  0  0  0  0  0  0  0  0  0  0
    2.5544   -0.0018    6.9000 C   0  0  0  0  0  0  0  0  0  0  0  0
    2.5544   10.9911    6.9000 C   0  0  0  0  0  0  0  0  0  0  0  0
    6.9337    2.5037    6.9000 C   0  0  0  0  0  0  0  0  0  0  0  0
    0.0057    6.8968    6.9000 C   0  0  0  0  0  0  0  0  0  0  0  0
   10.9987    6.8968    6.9000 C   0  0  0  0  0  0  0  0  0  0  0  0
   -1.1995    6.1957    6.9000 C   0  0  0  0  0  0  0  0  0  0  0  0
    9.7935    6.1957    6.9000 C   0  0  0  0  0  0  0  0  0  0  0  0
   -1.1775    4.8018    6.9000 C   0  0  0  0  0  0  0  0  0  0  0  0
    9.8154    4.8018    6.9000 C   0  0  0  0  0  0  0  0  0  0  0  0
    0.0125    4.0911    6.9000 C   0  0  0  0  0  0  0  0  0  0  0  0
   11.0055    4.0911    6.9000 C   0  0  0  0  0  0  0  0  0  0  0  0
    1.2054    4.7974    6.9000 C   0  0  0  0  0  0  0  0  0  0  0  0
   12.1983    4.7974    6.9000 C   0  0  0  0  0  0  0  0  0  0  0  0
    1.1971    6.1896    6.9000 C   0  0  0  0  0  0  0  0  0  0  0  0
   12.1901    6.1896    6.9000 C   0  0  0  0  0  0  0  0  0  0  0  0
    0.0048    8.4313    6.9000 C   0  0  0  0  0  0  0  0  0  0  0  0
   10.9978    8.4313    6.9000 C   0  0  0  0  0  0  0  0  0  0  0  0
    0.0042    2.5580    6.9000 C   0  0  0  0  0  0  0  0  0  0  0  0
   10.9972    2.5580    6.9000 C   0  0  0  0  0  0  0  0  0  0  0  0
    8.4923    6.9340    6.9000 C   0  0  0  0  0  0  0  0  0  0  0  0
    0.0005   -0.0000   -1.9736 C   0  0  0  0  0  0  0  0  0  0  0  0
    0.0005   -0.0000   11.8264 C   0  0  0  0  0  0  0  0  0  0  0  0
    0.0005   10.9930   -1.9736 C   0  0  0  0  0  0  0  0  0  0  0  0
    0.0005   10.9930   11.8264 C   0  0  0  0  0  0  0  0  0  0  0  0
   10.9935   -0.0000   -1.9736 C   0  0  0  0  0  0  0  0  0  0  0  0
   10.9935   -0.0000   11.8264 C   0  0  0  0  0  0  0  0  0  0  0  0
   10.9935   10.9930   -1.9736 C   0  0  0  0  0  0  0  0  0  0  0  0
   10.9935   10.9930   11.8264 C   0  0  0  0  0  0  0  0  0  0  0  0
    0.0010    0.0000   -0.6092 C   0  0  0  0  0  0  0  0  0  0  0  0
    0.0010    0.0000   13.1908 C   0  0  0  0  0  0  0  0  0  0  0  0
    0.0010   10.9930   -0.6092 C   0  0  0  0  0  0  0  0  0  0  0  0
    0.0010   10.9930   13.1908 C   0  0  0  0  0  0  0  0  0  0  0  0
   10.9940    0.0000   -0.6092 C   0  0  0  0  0  0  0  0  0  0  0  0
   10.9940    0.0000   13.1908 C   0  0  0  0  0  0  0  0  0  0  0  0
   10.9940   10.9930   -0.6092 C   0  0  0  0  0  0  0  0  0  0  0  0
   10.9940   10.9930   13.1908 C   0  0  0  0  0  0  0  0  0  0  0  0
    0.0010    0.0000    0.6092 C   0  0  0  0  0  0  0  0  0  0  0  0
    0.0010    0.0000   14.4092 C   0  0  0  0  0  0  0  0  0  0  0  0
    0.0010   10.9930    0.6092 C   0  0  0  0  0  0  0  0  0  0  0  0
    0.0010   10.9930   14.4092 C   0  0  0  0  0  0  0  0  0  0  0  0
   10.9940    0.0000    0.6092 C   0  0  0  0  0  0  0  0  0  0  0  0
   10.9940    0.0000   14.4092 C   0  0  0  0  0  0  0  0  0  0  0  0
   10.9940   10.9930    0.6092 C   0  0  0  0  0  0  0  0  0  0  0  0
   10.9940   10.9930   14.4092 C   0  0  0  0  0  0  0  0  0  0  0  0
    0.0005   -0.0000    1.9736 C   0  0  0  0  0  0  0  0  0  0  0  0
    0.0005   -0.0000   15.7736 C   0  0  0  0  0  0  0  0  0  0  0  0
    0.0005   10.9930    1.9736 C   0  0  0  0  0  0  0  0  0  0  0  0
    0.0005   10.9930   15.7736 C   0  0  0  0  0  0  0  0  0  0  0  0
   10.9935   -0.0000    1.9736 C   0  0  0  0  0  0  0  0  0  0  0  0
   10.9935   -0.0000   15.7736 C   0  0  0  0  0  0  0  0  0  0  0  0
   10.9935   10.9930    1.9736 C   0  0  0  0  0  0  0  0  0  0  0  0
   10.9935   10.9930   15.7736 C   0  0  0  0  0  0  0  0  0  0  0  0
   -0.0011   -0.0000   10.6765 N   0  0  0  0  0  0  0  0  0  0  0  0
   -0.0011   10.9929   10.6765 N   0  0  0  0  0  0  0  0  0  0  0  0
   10.9918   -0.0000   10.6765 N   0  0  0  0  0  0  0  0  0  0  0  0
   10.9918   10.9929   10.6765 N   0  0  0  0  0  0  0  0  0  0  0  0
   -0.0011   -0.0000    3.1234 N   0  0  0  0  0  0  0  0  0  0  0  0
   -0.0011   10.9929    3.1234 N   0  0  0  0  0  0  0  0  0  0  0  0
   10.9918   -0.0000    3.1234 N   0  0  0  0  0  0  0  0  0  0  0  0
   10.9918   10.9929    3.1234 N   0  0  0  0  0  0  0  0  0  0  0  0
   -2.0226   -0.0029    8.0221 O   0  0  0  0  0  0  0  0  0  0  0  0
   -2.0226   10.9901    8.0221 O   0  0  0  0  0  0  0  0  0  0  0  0
    8.9704   -0.0029    8.0221 O   0  0  0  0  0  0  0  0  0  0  0  0
    8.9704   10.9901    8.0221 O   0  0  0  0  0  0  0  0  0  0  0  0
   -2.0226   -0.0029    5.7779 O   0  0  0  0  0  0  0  0  0  0  0  0
   -2.0226   10.9901    5.7779 O   0  0  0  0  0  0  0  0  0  0  0  0
    8.9704   -0.0029    5.7779 O   0  0  0  0  0  0  0  0  0  0  0  0
    8.9704   10.9901    5.7779 O   0  0  0  0  0  0  0  0  0  0  0  0
    2.0143   -0.0007    8.0227 O   0  0  0  0  0  0  0  0  0  0  0  0
    2.0143   10.9923    8.0227 O   0  0  0  0  0  0  0  0  0  0  0  0
   13.0073   -0.0007    8.0227 O   0  0  0  0  0  0  0  0  0  0  0  0
   13.0073   10.9923    8.0227 O   0  0  0  0  0  0  0  0  0  0  0  0
    2.0143   -0.0007    5.7773 O   0  0  0  0  0  0  0  0  0  0  0  0
    2.0143   10.9923    5.7773 O   0  0  0  0  0  0  0  0  0  0  0  0
   13.0073   -0.0007    5.7773 O   0  0  0  0  0  0  0  0  0  0  0  0
   13.0073   10.9923    5.7773 O   0  0  0  0  0  0  0  0  0  0  0  0
    0.0021   -2.0200    8.0223 O   0  0  0  0  0  0  0  0  0  0  0  0
    0.0021    8.9729    8.0223 O   0  0  0  0  0  0  0  0  0  0  0  0
   10.9951   -2.0200    8.0223 O   0  0  0  0  0  0  0  0  0  0  0  0
   10.9951    8.9729    8.0223 O   0  0  0  0  0  0  0  0  0  0  0  0
    0.0021   -2.0200    5.7777 O   0  0  0  0  0  0  0  0  0  0  0  0
    0.0021    8.9729    5.7777 O   0  0  0  0  0  0  0  0  0  0  0  0
   10.9951   -2.0200    5.7777 O   0  0  0  0  0  0  0  0  0  0  0  0
   10.9951    8.9729    5.7777 O   0  0  0  0  0  0  0  0  0  0  0  0
   -0.0001    2.0169    8.0225 O   0  0  0  0  0  0  0  0  0  0  0  0
   -0.0001   13.0099    8.0225 O   0  0  0  0  0  0  0  0  0  0  0  0
   10.9929    2.0169    8.0225 O   0  0  0  0  0  0  0  0  0  0  0  0
   10.9929   13.0099    8.0225 O   0  0  0  0  0  0  0  0  0  0  0  0
   -0.0001    2.0169    5.7775 O   0  0  0  0  0  0  0  0  0  0  0  0
   -0.0001   13.0099    5.7775 O   0  0  0  0  0  0  0  0  0  0  0  0
   10.9929    2.0169    5.7775 O   0  0  0  0  0  0  0  0  0  0  0  0
   10.9929   13.0099    5.7775 O   0  0  0  0  0  0  0  0  0  0  0  0
  1 97  1  0  0  0  0
  1105  1  0  0  0  0
  1113  1  0  0  0  0
  1121  1  0  0  0  0
  1129  1  0  0  0  0
  2 98  1  0  0  0  0
  2106  1  0  0  0  0
  2114  1  0  0  0  0
  2122  1  0  0  0  0
  2130  1  0  0  0  0
  3 99  1  0  0  0  0
  3107  1  0  0  0  0
  3115  1  0  0  0  0
  3123  1  0  0  0  0
  3131  1  0  0  0  0
  4100  1  0  0  0  0
  4108  1  0  0  0  0
  4116  1  0  0  0  0
  4124  1  0  0  0  0
  4132  1  0  0  0  0
  5 93  1  0  0  0  0
  5101  1  0  0  0  0
  5109  1  0  0  0  0
  5117  1  0  0  0  0
  5125  1  0  0  0  0
  6 94  1  0  0  0  0
  6102  1  0  0  0  0
  6110  1  0  0  0  0
  6118  1  0  0  0  0
  6126  1  0  0  0  0
  7 95  1  0  0  0  0
  7103  1  0  0  0  0
  7111  1  0  0  0  0
  7119  1  0  0  0  0
  7127  1  0  0  0  0
  8 96  1  0  0  0  0
  8104  1  0  0  0  0
  8112  1  0  0  0  0
  8120  1  0  0  0  0
  8128  1  0  0  0  0
  9 43  1  0  0  0  0
 10 43  1  0  0  0  0
 11 43  1  0  0  0  0
 12 31  1  0  0  0  0
 13 32  1  0  0  0  0
 14 35  1  0  0  0  0
 15 36  1  0  0  0  0
 16 37  1  0  0  0  0
 17 38  1  0  0  0  0
 18 60  1  0  0  0  0
 19 60  1  0  0  0  0
 20 60  1  0  0  0  0
 21 48  1  0  0  0  0
 22 49  1  0  0  0  0
 23 52  1  0  0  0  0
 24 53  1  0  0  0  0
 25 54  1  0  0  0  0
 26 55  1  0  0  0  0
 27 29  1  0  0  0  0
 27 37  1  0  0  0  0
 27 39  1  0  0  0  0
 28 30  1  0  0  0  0
 28 38  1  0  0  0  0
 28 40  1  0  0  0  0
 29 31  1  0  0  0  0
 29 43  1  0  0  0  0
 30 32  1  0  0  0  0
 31 33  1  0  0  0  0
 32 34  1  0  0  0  0
 33 35  1  0  0  0  0
 33 41  1  0  0  0  0
 34 36  1  0  0  0  0
 34 42  1  0  0  0  0
 35 37  1  0  0  0  0
 36 38  1  0  0  0  0
 39103  1  0  0  0  0
 39107  1  0  0  0  0
 40104  1  0  0  0  0
 40108  1  0  0  0  0
 41109  1  0  0  0  0
 41113  1  0  0  0  0
 42110  1  0  0  0  0
 42114  1  0  0  0  0
 44 46  1  0  0  0  0
 44 54  1  0  0  0  0
 44 56  1  0  0  0  0
 45 47  1  0  0  0  0
 45 55  1  0  0  0  0
 45 57  1  0  0  0  0
 46 48  1  0  0  0  0
 47 49  1  0  0  0  0
 47 60  1  0  0  0  0
 48 50  1  0  0  0  0
 49 51  1  0  0  0  0
 50 52  1  0  0  0  0
 50 58  1  0  0  0  0
 51 53  1  0  0  0  0
 51 59  1  0  0  0  0
 52 54  1  0  0  0  0
 53 55  1  0  0  0  0
 56118  1  0  0  0  0
 56122  1  0  0  0  0
 57120  1  0  0  0  0
 57124  1  0  0  0  0
 58125  1  0  0  0  0
 58129  1  0  0  0  0
 59127  1  0  0  0  0
 59131  1  0  0  0  0
 61 69  1  0  0  0  0
 62 70  1  0  0  0  0
 62 93  1  0  0  0  0
 63 71  1  0  0  0  0
 64 72  1  0  0  0  0
 64 94  1  0  0  0  0
 65 73  1  0  0  0  0
 66 74  1  0  0  0  0
 66 95  1  0  0  0  0
 67 75  1  0  0  0  0
 68 76  1  0  0  0  0
 68 96  1  0  0  0  0
 69 77  1  0  0  0  0
 70 78  1  0  0  0  0
 71 79  1  0  0  0  0
 72 80  1  0  0  0  0
 73 81  1  0  0  0  0
 74 82  1  0  0  0  0
 75 83  1  0  0  0  0
 76 84  1  0  0  0  0
 77 85  1  0  0  0  0
 78 86  1  0  0  0  0
 79 87  1  0  0  0  0
 80 88  1  0  0  0  0
 81 89  1  0  0  0  0
 82 90  1  0  0  0  0
 83 91  1  0  0  0  0
 84 92  1  0  0  0  0
 85 97  1  0  0  0  0
 87 98  1  0  0  0  0
 89 99  1  0  0  0  0
 91100  1  0  0  0  0
M  END
$$$$
