ch3_bdc_cu2_paddlewheel_pillared_sql_bipy
AtomForge visual export

530583  0  0  0  0            999 V2000
   10.9926   10.9911    5.4944 Cu  0  0  0  0  0  0  0  0  0  0  0  0
   10.9926   10.9911   19.2944 Cu  0  0  0  0  0  0  0  0  0  0  0  0
   10.9926   -0.0019    5.4944 Cu  0  0  0  0  0  0  0  0  0  0  0  0
   10.9926   21.9840    5.4944 Cu  0  0  0  0  0  0  0  0  0  0  0  0
   10.9926   -0.0019   19.2944 Cu  0  0  0  0  0  0  0  0  0  0  0  0
   10.9926   21.9840   19.2944 Cu  0  0  0  0  0  0  0  0  0  0  0  0
   -0.0004   10.9911    5.4944 Cu  0  0  0  0  0  0  0  0  0  0  0  0
   21.9856   10.9911    5.4944 Cu  0  0  0  0  0  0  0  0  0  0  0  0
   -0.0004   10.9911   19.2944 Cu  0  0  0  0  0  0  0  0  0  0  0  0
   21.9856   10.9911   19.2944 Cu  0  0  0  0  0  0  0  0  0  0  0  0
   -0.0004   -0.0019    5.4944 Cu  0  0  0  0  0  0  0  0  0  0  0  0
   -0.0004   21.9840    5.4944 Cu  0  0  0  0  0  0  0  0  0  0  0  0
   21.9856   -0.0019    5.4944 Cu  0  0  0  0  0  0  0  0  0  0  0  0
   21.9856   21.9840    5.4944 Cu  0  0  0  0  0  0  0  0  0  0  0  0
   -0.0004   -0.0019   19.2944 Cu  0  0  0  0  0  0  0  0  0  0  0  0
   -0.0004   21.9840   19.2944 Cu  0  0  0  0  0  0  0  0  0  0  0  0
   21.9856   -0.0019   19.2944 Cu  0  0  0  0  0  0  0  0  0  0  0  0
   21.9856   21.9840   19.2944 Cu  0  0  0  0  0  0  0  0  0  0  0  0
   10.9926   10.9911    8.3056 Cu  0  0  0  0  0  0  0  0  0  0  0  0
   10.9926   10.9911   22.1056 Cu  0  0  0  0  0  0  0  0  0  0  0  0
   10.9926   -0.0019    8.3056 Cu  0  0  0  0  0  0  0  0  0  0  0  0
   10.9926   21.9840    8.3056 Cu  0  0  0  0  0  0  0  0  0  0  0  0
   10.9926   -0.0019   22.1056 Cu  0  0  0  0  0  0  0  0  0  0  0  0
   10.9926   21.9840   22.1056 Cu  0  0  0  0  0  0  0  0  0  0  0  0
   -0.0004   10.9911    8.3056 Cu  0  0  0  0  0  0  0  0  0  0  0  0
   21.9856   10.9911    8.3056 Cu  0  0  0  0  0  0  0  0  0  0  0  0
   -0.0004   10.9911   22.1056 Cu  0  0  0  0  0  0  0  0  0  0  0  0
   21.9856   10.9911   22.1056 Cu  0  0  0  0  0  0  0  0  0  0  0  0
   -0.0004   -0.0019    8.3056 Cu  0  0  0  0  0  0  0  0  0  0  0  0
   -0.0004   21.9840    8.3056 Cu  0  0  0  0  0  0  0  0  0  0  0  0
   21.9856   -0.0019    8.3056 Cu  0  0  0  0  0  0  0  0  0  0  0  0
   21.9856   21.9840    8.3056 Cu  0  0  0  0  0  0  0  0  0  0  0  0
   -0.0004   -0.0019   22.1056 Cu  0  0  0  0  0  0  0  0  0  0  0  0
   -0.0004   21.9840   22.1056 Cu  0  0  0  0  0  0  0  0  0  0  0  0
   21.9856   -0.0019   22.1056 Cu  0  0  0  0  0  0  0  0  0  0  0  0
   21.9856   21.9840   22.1056 Cu  0  0  0  0  0  0  0  0  0  0  0  0
    6.2451    3.3454    6.9000 H   0  0  0  0  0  0  0  0  0  0  0  0
    6.2451    3.3454   20.7000 H   0  0  0  0  0  0  0  0  0  0  0  0
    6.2451   14.3383    6.9000 H   0  0  0  0  0  0  0  0  0  0  0  0
    6.2451   14.3383   20.7000 H   0  0  0  0  0  0  0  0  0  0  0  0
   17.2381    3.3454    6.9000 H   0  0  0  0  0  0  0  0  0  0  0  0
   17.2381    3.3454   20.7000 H   0  0  0  0  0  0  0  0  0  0  0  0
   17.2381   14.3383    6.9000 H   0  0  0  0  0  0  0  0  0  0  0  0
   17.2381   14.3383   20.7000 H   0  0  0  0  0  0  0  0  0  0  0  0
    7.5727    2.5581    7.7817 H   0  0  0  0  0  0  0  0  0  0  0  0
    7.5727    2.5581   21.5817 H   0  0  0  0  0  0  0  0  0  0  0  0
    7.5727   13.5511    7.7817 H   0  0  0  0  0  0  0  0  0  0  0  0
    7.5727   13.5511   21.5817 H   0  0  0  0  0  0  0  0  0  0  0  0
   18.5657    2.5581    7.7817 H   0  0  0  0  0  0  0  0  0  0  0  0
   18.5657    2.5581   21.5817 H   0  0  0  0  0  0  0  0  0  0  0  0
   18.5657   13.5511    7.7817 H   0  0  0  0  0  0  0  0  0  0  0  0
   18.5657   13.5511   21.5817 H   0  0  0  0  0  0  0  0  0  0  0  0
    7.5727    2.5581    6.0183 H   0  0  0  0  0  0  0  0  0  0  0  0
    7.5727    2.5581   19.8183 H   0  0  0  0  0  0  0  0  0  0  0  0
    7.5727   13.5511    6.0183 H   0  0  0  0  0  0  0  0  0  0  0  0
    7.5727   13.5511   19.8183 H   0  0  0  0  0  0  0  0  0  0  0  0
   18.5657    2.5581    6.0183 H   0  0  0  0  0  0  0  0  0  0  0  0
   18.5657    2.5581   19.8183 H   0  0  0  0  0  0  0  0  0  0  0  0
   18.5657   13.5511    6.0183 H   0  0  0  0  0  0  0  0  0  0  0  0
   18.5657   13.5511   19.8183 H   0  0  0  0  0  0  0  0  0  0  0  0
    4.2588    2.1211    6.9000 H   0  0  0  0  0  0  0  0  0  0  0  0
    4.2588    2.1211   20.7000 H   0  0  0  0  0  0  0  0  0  0  0  0
    4.2588   13.1141    6.9000 H   0  0  0  0  0  0  0  0  0  0  0  0
    4.2588   13.1141   20.7000 H   0  0  0  0  0  0  0  0  0  0  0  0
   15.2518    2.1211    6.9000 H   0  0  0  0  0  0  0  0  0  0  0  0
   15.2518    2.1211   20.7000 H   0  0  0  0  0  0  0  0  0  0  0  0
   15.2518   13.1141    6.9000 H   0  0  0  0  0  0  0  0  0  0  0  0
   15.2518   13.1141   20.7000 H   0  0  0  0  0  0  0  0  0  0  0  0
    4.2617    8.8541    6.9000 H   0  0  0  0  0  0  0  0  0  0  0  0
    4.2617    8.8541   20.7000 H   0  0  0  0  0  0  0  0  0  0  0  0
    4.2617   19.8471    6.9000 H   0  0  0  0  0  0  0  0  0  0  0  0
    4.2617   19.8471   20.7000 H   0  0  0  0  0  0  0  0  0  0  0  0
   15.2547    8.8541    6.9000 H   0  0  0  0  0  0  0  0  0  0  0  0
   15.2547    8.8541   20.7000 H   0  0  0  0  0  0  0  0  0  0  0  0
   15.2547   19.8471    6.9000 H   0  0  0  0  0  0  0  0  0  0  0  0
   15.2547   19.8471   20.7000 H   0  0  0  0  0  0  0  0  0  0  0  0
    6.7153    8.8660    6.9000 H   0  0  0  0  0  0  0  0  0  0  0  0
    6.7153    8.8660   20.7000 H   0  0  0  0  0  0  0  0  0  0  0  0
    6.7153   19.8589    6.9000 H   0  0  0  0  0  0  0  0  0  0  0  0
    6.7153   19.8589   20.7000 H   0  0  0  0  0  0  0  0  0  0  0  0
   17.7083    8.8660    6.9000 H   0  0  0  0  0  0  0  0  0  0  0  0
   17.7083    8.8660   20.7000 H   0  0  0  0  0  0  0  0  0  0  0  0
   17.7083   19.8589    6.9000 H   0  0  0  0  0  0  0  0  0  0  0  0
   17.7083   19.8589   20.7000 H   0  0  0  0  0  0  0  0  0  0  0  0
    7.6512    6.2445    6.9000 H   0  0  0  0  0  0  0  0  0  0  0  0
    7.6512    6.2445   20.7000 H   0  0  0  0  0  0  0  0  0  0  0  0
    7.6512   17.2375    6.9000 H   0  0  0  0  0  0  0  0  0  0  0  0
    7.6512   17.2375   20.7000 H   0  0  0  0  0  0  0  0  0  0  0  0
   18.6441    6.2445    6.9000 H   0  0  0  0  0  0  0  0  0  0  0  0
   18.6441    6.2445   20.7000 H   0  0  0  0  0  0  0  0  0  0  0  0
   18.6441   17.2375    6.9000 H   0  0  0  0  0  0  0  0  0  0  0  0
   18.6441   17.2375   20.7000 H   0  0  0  0  0  0  0  0  0  0  0  0
    8.4356    7.5725    7.7817 H   0  0  0  0  0  0  0  0  0  0  0  0
    8.4356    7.5725   21.5817 H   0  0  0  0  0  0  0  0  0  0  0  0
    8.4356   18.5655    7.7817 H   0  0  0  0  0  0  0  0  0  0  0  0
    8.4356   18.5655   21.5817 H   0  0  0  0  0  0  0  0  0  0  0  0
   19.4286    7.5725    7.7817 H   0  0  0  0  0  0  0  0  0  0  0  0
   19.4286    7.5725   21.5817 H   0  0  0  0  0  0  0  0  0  0  0  0
   19.4286   18.5655    7.7817 H   0  0  0  0  0  0  0  0  0  0  0  0
   19.4286   18.5655   21.5817 H   0  0  0  0  0  0  0  0  0  0  0  0
    8.4356    7.5725    6.0183 H   0  0  0  0  0  0  0  0  0  0  0  0
    8.4356    7.5725   19.8183 H   0  0  0  0  0  0  0  0  0  0  0  0
    8.4356   18.5655    6.0183 H   0  0  0  0  0  0  0  0  0  0  0  0
    8.4356   18.5655   19.8183 H   0  0  0  0  0  0  0  0  0  0  0  0
   19.4286    7.5725    6.0183 H   0  0  0  0  0  0  0  0  0  0  0  0
   19.4286    7.5725   19.8183 H   0  0  0  0  0  0  0  0  0  0  0  0
   19.4286   18.5655    6.0183 H   0  0  0  0  0  0  0  0  0  0  0  0
   19.4286   18.5655   19.8183 H   0  0  0  0  0  0  0  0  0  0  0  0
    8.8776    4.2714    6.9000 H   0  0  0  0  0  0  0  0  0  0  0  0
    8.8776    4.2714   20.7000 H   0  0  0  0  0  0  0  0  0  0  0  0
    8.8776   15.2644    6.9000 H   0  0  0  0  0  0  0  0  0  0  0  0
    8.8776   15.2644   20.7000 H   0  0  0  0  0  0  0  0  0  0  0  0
   19.8706    4.2714    6.9000 H   0  0  0  0  0  0  0  0  0  0  0  0
   19.8706    4.2714   20.7000 H   0  0  0  0  0  0  0  0  0  0  0  0
   19.8706   15.2644    6.9000 H   0  0  0  0  0  0  0  0  0  0  0  0
   19.8706   15.2644   20.7000 H   0  0  0  0  0  0  0  0  0  0  0  0
    2.1429    4.2636    6.9000 H   0  0  0  0  0  0  0  0  0  0  0  0
    2.1429    4.2636   20.7000 H   0  0  0  0  0  0  0  0  0  0  0  0
    2.1429   15.2566    6.9000 H   0  0  0  0  0  0  0  0  0  0  0  0
    2.1429   15.2566   20.7000 H   0  0  0  0  0  0  0  0  0  0  0  0
   13.1359    4.2636    6.9000 H   0  0  0  0  0  0  0  0  0  0  0  0
   13.1359    4.2636   20.7000 H   0  0  0  0  0  0  0  0  0  0  0  0
   13.1359   15.2566    6.9000 H   0  0  0  0  0  0  0  0  0  0  0  0
   13.1359   15.2566   20.7000 H   0  0  0  0  0  0  0  0  0  0  0  0
    2.1326    6.7282    6.9000 H   0  0  0  0  0  0  0  0  0  0  0  0
    2.1326    6.7282   20.7000 H   0  0  0  0  0  0  0  0  0  0  0  0
    2.1326   17.7212    6.9000 H   0  0  0  0  0  0  0  0  0  0  0  0
    2.1326   17.7212   20.7000 H   0  0  0  0  0  0  0  0  0  0  0  0
   13.1255    6.7282    6.9000 H   0  0  0  0  0  0  0  0  0  0  0  0
   13.1255    6.7282   20.7000 H   0  0  0  0  0  0  0  0  0  0  0  0
   13.1255   17.7212    6.9000 H   0  0  0  0  0  0  0  0  0  0  0  0
   13.1255   17.7212   20.7000 H   0  0  0  0  0  0  0  0  0  0  0  0
    6.8920   10.9927    6.9000 C   0  0  0  0  0  0  0  0  0  0  0  0
    6.8920   10.9927   20.7000 C   0  0  0  0  0  0  0  0  0  0  0  0
    6.8920   -0.0003    6.9000 C   0  0  0  0  0  0  0  0  0  0  0  0
    6.8920   21.9856    6.9000 C   0  0  0  0  0  0  0  0  0  0  0  0
    6.8920   -0.0003   20.7000 C   0  0  0  0  0  0  0  0  0  0  0  0
    6.8920   21.9856   20.7000 C   0  0  0  0  0  0  0  0  0  0  0  0
   17.8850   10.9927    6.9000 C   0  0  0  0  0  0  0  0  0  0  0  0
   17.8850   10.9927   20.7000 C   0  0  0  0  0  0  0  0  0  0  0  0
   17.8850   -0.0003    6.9000 C   0  0  0  0  0  0  0  0  0  0  0  0
   17.8850   21.9856    6.9000 C   0  0  0  0  0  0  0  0  0  0  0  0
   17.8850   -0.0003   20.7000 C   0  0  0  0  0  0  0  0  0  0  0  0
   17.8850   21.9856   20.7000 C   0  0  0  0  0  0  0  0  0  0  0  0
    6.1905    1.2053    6.9000 C   0  0  0  0  0  0  0  0  0  0  0  0
    6.1905    1.2053   20.7000 C   0  0  0  0  0  0  0  0  0  0  0  0
    6.1905   12.1983    6.9000 C   0  0  0  0  0  0  0  0  0  0  0  0
    6.1905   12.1983   20.7000 C   0  0  0  0  0  0  0  0  0  0  0  0
   17.1834    1.2053    6.9000 C   0  0  0  0  0  0  0  0  0  0  0  0
   17.1834    1.2053   20.7000 C   0  0  0  0  0  0  0  0  0  0  0  0
   17.1834   12.1983    6.9000 C   0  0  0  0  0  0  0  0  0  0  0  0
   17.1834   12.1983   20.7000 C   0  0  0  0  0  0  0  0  0  0  0  0
    4.7958    1.1841    6.9000 C   0  0  0  0  0  0  0  0  0  0  0  0
    4.7958    1.1841   20.7000 C   0  0  0  0  0  0  0  0  0  0  0  0
    4.7958   12.1771    6.9000 C   0  0  0  0  0  0  0  0  0  0  0  0
    4.7958   12.1771   20.7000 C   0  0  0  0  0  0  0  0  0  0  0  0
   15.7887    1.1841    6.9000 C   0  0  0  0  0  0  0  0  0  0  0  0
   15.7887    1.1841   20.7000 C   0  0  0  0  0  0  0  0  0  0  0  0
   15.7887   12.1771    6.9000 C   0  0  0  0  0  0  0  0  0  0  0  0
   15.7887   12.1771   20.7000 C   0  0  0  0  0  0  0  0  0  0  0  0
    4.0862   10.9863    6.9000 C   0  0  0  0  0  0  0  0  0  0  0  0
    4.0862   10.9863   20.7000 C   0  0  0  0  0  0  0  0  0  0  0  0
    4.0862   -0.0066    6.9000 C   0  0  0  0  0  0  0  0  0  0  0  0
    4.0862   21.9793    6.9000 C   0  0  0  0  0  0  0  0  0  0  0  0
    4.0862   -0.0066   20.7000 C   0  0  0  0  0  0  0  0  0  0  0  0
    4.0862   21.9793   20.7000 C   0  0  0  0  0  0  0  0  0  0  0  0
   15.0792   10.9863    6.9000 C   0  0  0  0  0  0  0  0  0  0  0  0
   15.0792   10.9863   20.7000 C   0  0  0  0  0  0  0  0  0  0  0  0
   15.0792   -0.0066    6.9000 C   0  0  0  0  0  0  0  0  0  0  0  0
   15.0792   21.9793    6.9000 C   0  0  0  0  0  0  0  0  0  0  0  0
   15.0792   -0.0066   20.7000 C   0  0  0  0  0  0  0  0  0  0  0  0
   15.0792   21.9793   20.7000 C   0  0  0  0  0  0  0  0  0  0  0  0
    4.7919    9.7938    6.9000 C   0  0  0  0  0  0  0  0  0  0  0  0
    4.7919    9.7938   20.7000 C   0  0  0  0  0  0  0  0  0  0  0  0
    4.7919   20.7868    6.9000 C   0  0  0  0  0  0  0  0  0  0  0  0
    4.7919   20.7868   20.7000 C   0  0  0  0  0  0  0  0  0  0  0  0
   15.7848    9.7938    6.9000 C   0  0  0  0  0  0  0  0  0  0  0  0
   15.7848    9.7938   20.7000 C   0  0  0  0  0  0  0  0  0  0  0  0
   15.7848   20.7868    6.9000 C   0  0  0  0  0  0  0  0  0  0  0  0
   15.7848   20.7868   20.7000 C   0  0  0  0  0  0  0  0  0  0  0  0
    6.1833    9.8023    6.9000 C   0  0  0  0  0  0  0  0  0  0  0  0
    6.1833    9.8023   20.7000 C   0  0  0  0  0  0  0  0  0  0  0  0
    6.1833   20.7953    6.9000 C   0  0  0  0  0  0  0  0  0  0  0  0
    6.1833   20.7953   20.7000 C   0  0  0  0  0  0  0  0  0  0  0  0
   17.1763    9.8023    6.9000 C   0  0  0  0  0  0  0  0  0  0  0  0
   17.1763    9.8023   20.7000 C   0  0  0  0  0  0  0  0  0  0  0  0
   17.1763   20.7953    6.9000 C   0  0  0  0  0  0  0  0  0  0  0  0
   17.1763   20.7953   20.7000 C   0  0  0  0  0  0  0  0  0  0  0  0
    8.4277   10.9903    6.9000 C   0  0  0  0  0  0  0  0  0  0  0  0
    8.4277   10.9903   20.7000 C   0  0  0  0  0  0  0  0  0  0  0  0
    8.4277   -0.0026    6.9000 C   0  0  0  0  0  0  0  0  0  0  0  0
    8.4277   21.9833    6.9000 C   0  0  0  0  0  0  0  0  0  0  0  0
    8.4277   -0.0026   20.7000 C   0  0  0  0  0  0  0  0  0  0  0  0
    8.4277   21.9833   20.7000 C   0  0  0  0  0  0  0  0  0  0  0  0
   19.4207   10.9903    6.9000 C   0  0  0  0  0  0  0  0  0  0  0  0
   19.4207   10.9903   20.7000 C   0  0  0  0  0  0  0  0  0  0  0  0
   19.4207   -0.0026    6.9000 C   0  0  0  0  0  0  0  0  0  0  0  0
   19.4207   21.9833    6.9000 C   0  0  0  0  0  0  0  0  0  0  0  0
   19.4207   -0.0026   20.7000 C   0  0  0  0  0  0  0  0  0  0  0  0
   19.4207   21.9833   20.7000 C   0  0  0  0  0  0  0  0  0  0  0  0
    2.5544   10.9911    6.9000 C   0  0  0  0  0  0  0  0  0  0  0  0
    2.5544   10.9911   20.7000 C   0  0  0  0  0  0  0  0  0  0  0  0
    2.5544   -0.0018    6.9000 C   0  0  0  0  0  0  0  0  0  0  0  0
    2.5544   21.9841    6.9000 C   0  0  0  0  0  0  0  0  0  0  0  0
    2.5544   -0.0018   20.7000 C   0  0  0  0  0  0  0  0  0  0  0  0
    2.5544   21.9841   20.7000 C   0  0  0  0  0  0  0  0  0  0  0  0
   13.5474   10.9911    6.9000 C   0  0  0  0  0  0  0  0  0  0  0  0
   13.5474   10.9911   20.7000 C   0  0  0  0  0  0  0  0  0  0  0  0
   13.5474   -0.0018    6.9000 C   0  0  0  0  0  0  0  0  0  0  0  0
   13.5474   21.9841    6.9000 C   0  0  0  0  0  0  0  0  0  0  0  0
   13.5474   -0.0018   20.7000 C   0  0  0  0  0  0  0  0  0  0  0  0
   13.5474   21.9841   20.7000 C   0  0  0  0  0  0  0  0  0  0  0  0
    6.9337    2.5037    6.9000 C   0  0  0  0  0  0  0  0  0  0  0  0
    6.9337    2.5037   20.7000 C   0  0  0  0  0  0  0  0  0  0  0  0
    6.9337   13.4966    6.9000 C   0  0  0  0  0  0  0  0  0  0  0  0
    6.9337   13.4966   20.7000 C   0  0  0  0  0  0  0  0  0  0  0  0
   17.9266    2.5037    6.9000 C   0  0  0  0  0  0  0  0  0  0  0  0
   17.9266    2.5037   20.7000 C   0  0  0  0  0  0  0  0  0  0  0  0
   17.9266   13.4966    6.9000 C   0  0  0  0  0  0  0  0  0  0  0  0
   17.9266   13.4966   20.7000 C   0  0  0  0  0  0  0  0  0  0  0  0
    0.0057    6.8968    6.9000 C   0  0  0  0  0  0  0  0  0  0  0  0
   21.9917    6.8968    6.9000 C   0  0  0  0  0  0  0  0  0  0  0  0
    0.0057    6.8968   20.7000 C   0  0  0  0  0  0  0  0  0  0  0  0
   21.9917    6.8968   20.7000 C   0  0  0  0  0  0  0  0  0  0  0  0
    0.0057   17.8898    6.9000 C   0  0  0  0  0  0  0  0  0  0  0  0
   21.9917   17.8898    6.9000 C   0  0  0  0  0  0  0  0  0  0  0  0
    0.0057   17.8898   20.7000 C   0  0  0  0  0  0  0  0  0  0  0  0
   21.9917   17.8898   20.7000 C   0  0  0  0  0  0  0  0  0  0  0  0
   10.9987    6.8968    6.9000 C   0  0  0  0  0  0  0  0  0  0  0  0
   10.9987    6.8968   20.7000 C   0  0  0  0  0  0  0  0  0  0  0  0
   10.9987   17.8898    6.9000 C   0  0  0  0  0  0  0  0  0  0  0  0
   10.9987   17.8898   20.7000 C   0  0  0  0  0  0  0  0  0  0  0  0
    9.7935    6.1957    6.9000 C   0  0  0  0  0  0  0  0  0  0  0  0
    9.7935    6.1957   20.7000 C   0  0  0  0  0  0  0  0  0  0  0  0
    9.7935   17.1886    6.9000 C   0  0  0  0  0  0  0  0  0  0  0  0
    9.7935   17.1886   20.7000 C   0  0  0  0  0  0  0  0  0  0  0  0
   20.7864    6.1957    6.9000 C   0  0  0  0  0  0  0  0  0  0  0  0
   20.7864    6.1957   20.7000 C   0  0  0  0  0  0  0  0  0  0  0  0
   20.7864   17.1886    6.9000 C   0  0  0  0  0  0  0  0  0  0  0  0
   20.7864   17.1886   20.7000 C   0  0  0  0  0  0  0  0  0  0  0  0
    9.8154    4.8018    6.9000 C   0  0  0  0  0  0  0  0  0  0  0  0
    9.8154    4.8018   20.7000 C   0  0  0  0  0  0  0  0  0  0  0  0
    9.8154   15.7947    6.9000 C   0  0  0  0  0  0  0  0  0  0  0  0
    9.8154   15.7947   20.7000 C   0  0  0  0  0  0  0  0  0  0  0  0
   20.8084    4.8018    6.9000 C   0  0  0  0  0  0  0  0  0  0  0  0
   20.8084    4.8018   20.7000 C   0  0  0  0  0  0  0  0  0  0  0  0
   20.8084   15.7947    6.9000 C   0  0  0  0  0  0  0  0  0  0  0  0
   20.8084   15.7947   20.7000 C   0  0  0  0  0  0  0  0  0  0  0  0
    0.0125    4.0911    6.9000 C   0  0  0  0  0  0  0  0  0  0  0  0
   21.9984    4.0911    6.9000 C   0  0  0  0  0  0  0  0  0  0  0  0
    0.0125    4.0911   20.7000 C   0  0  0  0  0  0  0  0  0  0  0  0
   21.9984    4.0911   20.7000 C   0  0  0  0  0  0  0  0  0  0  0  0
    0.0125   15.0841    6.9000 C   0  0  0  0  0  0  0  0  0  0  0  0
   21.9984   15.0841    6.9000 C   0  0  0  0  0  0  0  0  0  0  0  0
    0.0125   15.0841   20.7000 C   0  0  0  0  0  0  0  0  0  0  0  0
   21.9984   15.0841   20.7000 C   0  0  0  0  0  0  0  0  0  0  0  0
   11.0055    4.0911    6.9000 C   0  0  0  0  0  0  0  0  0  0  0  0
   11.0055    4.0911   20.7000 C   0  0  0  0  0  0  0  0  0  0  0  0
   11.0055   15.0841    6.9000 C   0  0  0  0  0  0  0  0  0  0  0  0
   11.0055   15.0841   20.7000 C   0  0  0  0  0  0  0  0  0  0  0  0
    1.2054    4.7974    6.9000 C   0  0  0  0  0  0  0  0  0  0  0  0
    1.2054    4.7974   20.7000 C   0  0  0  0  0  0  0  0  0  0  0  0
    1.2054   15.7904    6.9000 C   0  0  0  0  0  0  0  0  0  0  0  0
    1.2054   15.7904   20.7000 C   0  0  0  0  0  0  0  0  0  0  0  0
   12.1983    4.7974    6.9000 C   0  0  0  0  0  0  0  0  0  0  0  0
   12.1983    4.7974   20.7000 C   0  0  0  0  0  0  0  0  0  0  0  0
   12.1983   15.7904    6.9000 C   0  0  0  0  0  0  0  0  0  0  0  0
   12.1983   15.7904   20.7000 C   0  0  0  0  0  0  0  0  0  0  0  0
    1.1971    6.1896    6.9000 C   0  0  0  0  0  0  0  0  0  0  0  0
    1.1971    6.1896   20.7000 C   0  0  0  0  0  0  0  0  0  0  0  0
    1.1971   17.1826    6.9000 C   0  0  0  0  0  0  0  0  0  0  0  0
    1.1971   17.1826   20.7000 C   0  0  0  0  0  0  0  0  0  0  0  0
   12.1901    6.1896    6.9000 C   0  0  0  0  0  0  0  0  0  0  0  0
   12.1901    6.1896   20.7000 C   0  0  0  0  0  0  0  0  0  0  0  0
   12.1901   17.1826    6.9000 C   0  0  0  0  0  0  0  0  0  0  0  0
   12.1901   17.1826   20.7000 C   0  0  0  0  0  0  0  0  0  0  0  0
    0.0048    8.4313    6.9000 C   0  0  0  0  0  0  0  0  0  0  0  0
   21.9908    8.4313    6.9000 C   0  0  0  0  0  0  0  0  0  0  0  0
    0.0048    8.4313   20.7000 C   0  0  0  0  0  0  0  0  0  0  0  0
   21.9908    8.4313   20.7000 C   0  0  0  0  0  0  0  0  0  0  0  0
    0.0048   19.4242    6.9000 C   0  0  0  0  0  0  0  0  0  0  0  0
   21.9908   19.4242    6.9000 C   0  0  0  0  0  0  0  0  0  0  0  0
    0.0048   19.4242   20.7000 C   0  0  0  0  0  0  0  0  0  0  0  0
   21.9908   19.4242   20.7000 C   0  0  0  0  0  0  0  0  0  0  0  0
   10.9978    8.4313    6.9000 C   0  0  0  0  0  0  0  0  0  0  0  0
   10.9978    8.4313   20.7000 C   0  0  0  0  0  0  0  0  0  0  0  0
   10.9978   19.4242    6.9000 C   0  0  0  0  0  0  0  0  0  0  0  0
   10.9978   19.4242   20.7000 C   0  0  0  0  0  0  0  0  0  0  0  0
    0.0042    2.5580    6.9000 C   0  0  0  0  0  0  0  0  0  0  0  0
   21.9902    2.5580    6.9000 C   0  0  0  0  0  0  0  0  0  0  0  0
    0.0042    2.5580   20.7000 C   0  0  0  0  0  0  0  0  0  0  0  0
   21.9902    2.5580   20.7000 C   0  0  0  0  0  0  0  0  0  0  0  0
    0.0042   13.5510    6.9000 C   0  0  0  0  0  0  0  0  0  0  0  0
   21.9902   13.5510    6.9000 C   0  0  0  0  0  0  0  0  0  0  0  0
    0.0042   13.5510   20.7000 C   0  0  0  0  0  0  0  0  0  0  0  0
   21.9902   13.5510   20.7000 C   0  0  0  0  0  0  0  0  0  0  0  0
   10.9972    2.5580    6.9000 C   0  0  0  0  0  0  0  0  0  0  0  0
   10.9972    2.5580   20.7000 C   0  0  0  0  0  0  0  0  0  0  0  0
   10.9972   13.5510    6.9000 C   0  0  0  0  0  0  0  0  0  0  0  0
   10.9972   13.5510   20.7000 C   0  0  0  0  0  0  0  0  0  0  0  0
    8.4923    6.9340    6.9000 C   0  0  0  0  0  0  0  0  0  0  0  0
    8.4923    6.9340   20.7000 C   0  0  0  0  0  0  0  0  0  0  0  0
    8.4923   17.9270    6.9000 C   0  0  0  0  0  0  0  0  0  0  0  0
    8.4923   17.9270   20.7000 C   0  0  0  0  0  0  0  0  0  0  0  0
   19.4852    6.9340    6.9000 C   0  0  0  0  0  0  0  0  0  0  0  0
   19.4852    6.9340   20.7000 C   0  0  0  0  0  0  0  0  0  0  0  0
   19.4852   17.9270    6.9000 C   0  0  0  0  0  0  0  0  0  0  0  0
   19.4852   17.9270   20.7000 C   0  0  0  0  0  0  0  0  0  0  0  0
    0.0005   10.9930   11.8264 C   0  0  0  0  0  0  0  0  0  0  0  0
   21.9864   10.9930   11.8264 C   0  0  0  0  0  0  0  0  0  0  0  0
    0.0005   10.9930   25.6264 C   0  0  0  0  0  0  0  0  0  0  0  0
   21.9864   10.9930   25.6264 C   0  0  0  0  0  0  0  0  0  0  0  0
    0.0005   -0.0000   11.8264 C   0  0  0  0  0  0  0  0  0  0  0  0
    0.0005   21.9859   11.8264 C   0  0  0  0  0  0  0  0  0  0  0  0
   21.9864   -0.0000   11.8264 C   0  0  0  0  0  0  0  0  0  0  0  0
   21.9864   21.9859   11.8264 C   0  0  0  0  0  0  0  0  0  0  0  0
    0.0005   -0.0000   25.6264 C   0  0  0  0  0  0  0  0  0  0  0  0
    0.0005   21.9859   25.6264 C   0  0  0  0  0  0  0  0  0  0  0  0
   21.9864   -0.0000   25.6264 C   0  0  0  0  0  0  0  0  0  0  0  0
   21.9864   21.9859   25.6264 C   0  0  0  0  0  0  0  0  0  0  0  0
   10.9935   10.9930   11.8264 C   0  0  0  0  0  0  0  0  0  0  0  0
   10.9935   10.9930   25.6264 C   0  0  0  0  0  0  0  0  0  0  0  0
   10.9935   -0.0000   11.8264 C   0  0  0  0  0  0  0  0  0  0  0  0
   10.9935   21.9859   11.8264 C   0  0  0  0  0  0  0  0  0  0  0  0
   10.9935   -0.0000   25.6264 C   0  0  0  0  0  0  0  0  0  0  0  0
   10.9935   21.9859   25.6264 C   0  0  0  0  0  0  0  0  0  0  0  0
    0.0010    0.0000   13.1908 C   0  0  0  0  0  0  0  0  0  0  0  0
    0.0010   21.9859   13.1908 C   0  0  0  0  0  0  0  0  0  0  0  0
   21.9869    0.0000   13.1908 C   0  0  0  0  0  0  0  0  0  0  0  0
   21.9869   21.9859   13.1908 C   0  0  0  0  0  0  0  0  0  0  0  0
    0.0010    0.0000   -0.6092 C   0  0  0  0  0  0  0  0  0  0  0  0
    0.0010    0.0000   26.9908 C   0  0  0  0  0  0  0  0  0  0  0  0
    0.0010   21.9859   -0.6092 C   0  0  0  0  0  0  0  0  0  0  0  0
    0.0010   21.9859   26.9908 C   0  0  0  0  0  0  0  0  0  0  0  0
   21.9869    0.0000   -0.6092 C   0  0  0  0  0  0  0  0  0  0  0  0
   21.9869    0.0000   26.9908 C   0  0  0  0  0  0  0  0  0  0  0  0
   21.9869   21.9859   -0.6092 C   0  0  0  0  0  0  0  0  0  0  0  0
   21.9869   21.9859   26.9908 C   0  0  0  0  0  0  0  0  0  0  0  0
    0.0010   10.9930   13.1908 C   0  0  0  0  0  0  0  0  0  0  0  0
   21.9869   10.9930   13.1908 C   0  0  0  0  0  0  0  0  0  0  0  0
    0.0010   10.9930   -0.6092 C   0  0  0  0  0  0  0  0  0  0  0  0
    0.0010   10.9930   26.9908 C   0  0  0  0  0  0  0  0  0  0  0  0
   21.9869   10.9930   -0.6092 C   0  0  0  0  0  0  0  0  0  0  0  0
   21.9869   10.9930   26.9908 C   0  0  0  0  0  0  0  0  0  0  0  0
   10.9940    0.0000   13.1908 C   0  0  0  0  0  0  0  0  0  0  0  0
   10.9940   21.9859   13.1908 C   0  0  0  0  0  0  0  0  0  0  0  0
   10.9940    0.0000   -0.6092 C   0  0  0  0  0  0  0  0  0  0  0  0
   10.9940    0.0000   26.9908 C   0  0  0  0  0  0  0  0  0  0  0  0
   10.9940   21.9859   -0.6092 C   0  0  0  0  0  0  0  0  0  0  0  0
   10.9940   21.9859   26.9908 C   0  0  0  0  0  0  0  0  0  0  0  0
   10.9940   10.9930   13.1908 C   0  0  0  0  0  0  0  0  0  0  0  0
   10.9940   10.9930   -0.6092 C   0  0  0  0  0  0  0  0  0  0  0  0
   10.9940   10.9930   26.9908 C   0  0  0  0  0  0  0  0  0  0  0  0
    0.0010    0.0000    0.6092 C   0  0  0  0  0  0  0  0  0  0  0  0
    0.0010    0.0000   28.2092 C   0  0  0  0  0  0  0  0  0  0  0  0
    0.0010   21.9859    0.6092 C   0  0  0  0  0  0  0  0  0  0  0  0
    0.0010   21.9859   28.2092 C   0  0  0  0  0  0  0  0  0  0  0  0
   21.9869    0.0000    0.6092 C   0  0  0  0  0  0  0  0  0  0  0  0
   21.9869    0.0000   28.2092 C   0  0  0  0  0  0  0  0  0  0  0  0
   21.9869   21.9859    0.6092 C   0  0  0  0  0  0  0  0  0  0  0  0
   21.9869   21.9859   28.2092 C   0  0  0  0  0  0  0  0  0  0  0  0
    0.0010    0.0000   14.4092 C   0  0  0  0  0  0  0  0  0  0  0  0
    0.0010   21.9859   14.4092 C   0  0  0  0  0  0  0  0  0  0  0  0
   21.9869    0.0000   14.4092 C   0  0  0  0  0  0  0  0  0  0  0  0
   21.9869   21.9859   14.4092 C   0  0  0  0  0  0  0  0  0  0  0  0
    0.0010   10.9930    0.6092 C   0  0  0  0  0  0  0  0  0  0  0  0
    0.0010   10.9930   28.2092 C   0  0  0  0  0  0  0  0  0  0  0  0
   21.9869   10.9930    0.6092 C   0  0  0  0  0  0  0  0  0  0  0  0
   21.9869   10.9930   28.2092 C   0  0  0  0  0  0  0  0  0  0  0  0
    0.0010   10.9930   14.4092 C   0  0  0  0  0  0  0  0  0  0  0  0
   21.9869   10.9930   14.4092 C   0  0  0  0  0  0  0  0  0  0  0  0
   10.9940    0.0000    0.6092 C   0  0  0  0  0  0  0  0  0  0  0  0
   10.9940    0.0000   28.2092 C   0  0  0  0  0  0  0  0  0  0  0  0
   10.9940   21.9859    0.6092 C   0  0  0  0  0  0  0  0  0  0  0  0
   10.9940   21.9859   28.2092 C   0  0  0  0  0  0  0  0  0  0  0  0
   10.9940    0.0000   14.4092 C   0  0  0  0  0  0  0  0  0  0  0  0
   10.9940   21.9859   14.4092 C   0  0  0  0  0  0  0  0  0  0  0  0
   10.9940   10.9930    0.6092 C   0  0  0  0  0  0  0  0  0  0  0  0
   10.9940   10.9930   28.2092 C   0  0  0  0  0  0  0  0  0  0  0  0
   10.9940   10.9930   14.4092 C   0  0  0  0  0  0  0  0  0  0  0  0
    0.0005   10.9930    1.9736 C   0  0  0  0  0  0  0  0  0  0  0  0
   21.9864   10.9930    1.9736 C   0  0  0  0  0  0  0  0  0  0  0  0
    0.0005   10.9930   15.7736 C   0  0  0  0  0  0  0  0  0  0  0  0
   21.9864   10.9930   15.7736 C   0  0  0  0  0  0  0  0  0  0  0  0
    0.0005   -0.0000    1.9736 C   0  0  0  0  0  0  0  0  0  0  0  0
    0.0005   21.9859    1.9736 C   0  0  0  0  0  0  0  0  0  0  0  0
   21.9864   -0.0000    1.9736 C   0  0  0  0  0  0  0  0  0  0  0  0
   21.9864   21.9859    1.9736 C   0  0  0  0  0  0  0  0  0  0  0  0
    0.0005   -0.0000   15.7736 C   0  0  0  0  0  0  0  0  0  0  0  0
    0.0005   21.9859   15.7736 C   0  0  0  0  0  0  0  0  0  0  0  0
   21.9864   -0.0000   15.7736 C   0  0  0  0  0  0  0  0  0  0  0  0
   21.9864   21.9859   15.7736 C   0  0  0  0  0  0  0  0  0  0  0  0
   10.9935   10.9930    1.9736 C   0  0  0  0  0  0  0  0  0  0  0  0
   10.9935   10.9930   15.7736 C   0  0  0  0  0  0  0  0  0  0  0  0
   10.9935   -0.0000    1.9736 C   0  0  0  0  0  0  0  0  0  0  0  0
   10.9935   21.9859    1.9736 C   0  0  0  0  0  0  0  0  0  0  0  0
   10.9935   -0.0000   15.7736 C   0  0  0  0  0  0  0  0  0  0  0  0
   10.9935   21.9859   15.7736 C   0  0  0  0  0  0  0  0  0  0  0  0
   10.9918   10.9929   10.6765 N   0  0  0  0  0  0  0  0  0  0  0  0
   10.9918   10.9929   24.4765 N   0  0  0  0  0  0  0  0  0  0  0  0
   10.9918   -0.0000   10.6765 N   0  0  0  0  0  0  0  0  0  0  0  0
   10.9918   21.9859   10.6765 N   0  0  0  0  0  0  0  0  0  0  0  0
   10.9918   -0.0000   24.4765 N   0  0  0  0  0  0  0  0  0  0  0  0
   10.9918   21.9859   24.4765 N   0  0  0  0  0  0  0  0  0  0  0  0
   -0.0011   10.9929   10.6765 N   0  0  0  0  0  0  0  0  0  0  0  0
   21.9848   10.9929   10.6765 N   0  0  0  0  0  0  0  0  0  0  0  0
   -0.0011   10.9929   24.4765 N   0  0  0  0  0  0  0  0  0  0  0  0
   21.9848   10.9929   24.4765 N   0  0  0  0  0  0  0  0  0  0  0  0
   -0.0011   -0.0000   10.6765 N   0  0  0  0  0  0  0  0  0  0  0  0
   -0.0011   21.9859   10.6765 N   0  0  0  0  0  0  0  0  0  0  0  0
   21.9848   -0.0000   10.6765 N   0  0  0  0  0  0  0  0  0  0  0  0
   21.9848   21.9859   10.6765 N   0  0  0  0  0  0  0  0  0  0  0  0
   -0.0011   -0.0000   24.4765 N   0  0  0  0  0  0  0  0  0  0  0  0
   -0.0011   21.9859   24.4765 N   0  0  0  0  0  0  0  0  0  0  0  0
   21.9848   -0.0000   24.4765 N   0  0  0  0  0  0  0  0  0  0  0  0
   21.9848   21.9859   24.4765 N   0  0  0  0  0  0  0  0  0  0  0  0
   10.9918   10.9929    3.1234 N   0  0  0  0  0  0  0  0  0  0  0  0
   10.9918   10.9929   16.9234 N   0  0  0  0  0  0  0  0  0  0  0  0
   10.9918   -0.0000    3.1234 N   0  0  0  0  0  0  0  0  0  0  0  0
   10.9918   21.9859    3.1234 N   0  0  0  0  0  0  0  0  0  0  0  0
   10.9918   -0.0000   16.9234 N   0  0  0  0  0  0  0  0  0  0  0  0
   10.9918   21.9859   16.9234 N   0  0  0  0  0  0  0  0  0  0  0  0
   -0.0011   10.9929    3.1234 N   0  0  0  0  0  0  0  0  0  0  0  0
   21.9848   10.9929    3.1234 N   0  0  0  0  0  0  0  0  0  0  0  0
   -0.0011   10.9929   16.9234 N   0  0  0  0  0  0  0  0  0  0  0  0
   21.9848   10.9929   16.9234 N   0  0  0  0  0  0  0  0  0  0  0  0
   -0.0011   -0.0000    3.1234 N   0  0  0  0  0  0  0  0  0  0  0  0
   -0.0011   21.9859    3.1234 N   0  0  0  0  0  0  0  0  0  0  0  0
   21.9848   -0.0000    3.1234 N   0  0  0  0  0  0  0  0  0  0  0  0
   21.9848   21.9859    3.1234 N   0  0  0  0  0  0  0  0  0  0  0  0
   -0.0011   -0.0000   16.9234 N   0  0  0  0  0  0  0  0  0  0  0  0
   -0.0011   21.9859   16.9234 N   0  0  0  0  0  0  0  0  0  0  0  0
   21.9848   -0.0000   16.9234 N   0  0  0  0  0  0  0  0  0  0  0  0
   21.9848   21.9859   16.9234 N   0  0  0  0  0  0  0  0  0  0  0  0
    8.9704   10.9901    8.0221 O   0  0  0  0  0  0  0  0  0  0  0  0
    8.9704   10.9901   21.8221 O   0  0  0  0  0  0  0  0  0  0  0  0
    8.9704   -0.0029    8.0221 O   0  0  0  0  0  0  0  0  0  0  0  0
    8.9704   21.9831    8.0221 O   0  0  0  0  0  0  0  0  0  0  0  0
    8.9704   -0.0029   21.8221 O   0  0  0  0  0  0  0  0  0  0  0  0
    8.9704   21.9831   21.8221 O   0  0  0  0  0  0  0  0  0  0  0  0
   19.9633   10.9901    8.0221 O   0  0  0  0  0  0  0  0  0  0  0  0
   19.9633   10.9901   21.8221 O   0  0  0  0  0  0  0  0  0  0  0  0
   19.9633   -0.0029    8.0221 O   0  0  0  0  0  0  0  0  0  0  0  0
   19.9633   21.9831    8.0221 O   0  0  0  0  0  0  0  0  0  0  0  0
   19.9633   -0.0029   21.8221 O   0  0  0  0  0  0  0  0  0  0  0  0
   19.9633   21.9831   21.8221 O   0  0  0  0  0  0  0  0  0  0  0  0
    8.9704   10.9901    5.7779 O   0  0  0  0  0  0  0  0  0  0  0  0
    8.9704   10.9901   19.5779 O   0  0  0  0  0  0  0  0  0  0  0  0
    8.9704   -0.0029    5.7779 O   0  0  0  0  0  0  0  0  0  0  0  0
    8.9704   21.9831    5.7779 O   0  0  0  0  0  0  0  0  0  0  0  0
    8.9704   -0.0029   19.5779 O   0  0  0  0  0  0  0  0  0  0  0  0
    8.9704   21.9831   19.5779 O   0  0  0  0  0  0  0  0  0  0  0  0
   19.9633   10.9901    5.7779 O   0  0  0  0  0  0  0  0  0  0  0  0
   19.9633   10.9901   19.5779 O   0  0  0  0  0  0  0  0  0  0  0  0
   19.9633   -0.0029    5.7779 O   0  0  0  0  0  0  0  0  0  0  0  0
   19.9633   21.9831    5.7779 O   0  0  0  0  0  0  0  0  0  0  0  0
   19.9633   -0.0029   19.5779 O   0  0  0  0  0  0  0  0  0  0  0  0
   19.9633   21.9831   19.5779 O   0  0  0  0  0  0  0  0  0  0  0  0
    2.0143   10.9923    8.0227 O   0  0  0  0  0  0  0  0  0  0  0  0
    2.0143   10.9923   21.8227 O   0  0  0  0  0  0  0  0  0  0  0  0
    2.0143   -0.0007    8.0227 O   0  0  0  0  0  0  0  0  0  0  0  0
    2.0143   21.9852    8.0227 O   0  0  0  0  0  0  0  0  0  0  0  0
    2.0143   -0.0007   21.8227 O   0  0  0  0  0  0  0  0  0  0  0  0
    2.0143   21.9852   21.8227 O   0  0  0  0  0  0  0  0  0  0  0  0
   13.0073   10.9923    8.0227 O   0  0  0  0  0  0  0  0  0  0  0  0
   13.0073   10.9923   21.8227 O   0  0  0  0  0  0  0  0  0  0  0  0
   13.0073   -0.0007    8.0227 O   0  0  0  0  0  0  0  0  0  0  0  0
   13.0073   21.9852    8.0227 O   0  0  0  0  0  0  0  0  0  0  0  0
   13.0073   -0.0007   21.8227 O   0  0  0  0  0  0  0  0  0  0  0  0
   13.0073   21.9852   21.8227 O   0  0  0  0  0  0  0  0  0  0  0  0
    2.0143   10.9923    5.7773 O   0  0  0  0  0  0  0  0  0  0  0  0
    2.0143   10.9923   19.5773 O   0  0  0  0  0  0  0  0  0  0  0  0
    2.0143   -0.0007    5.7773 O   0  0  0  0  0  0  0  0  0  0  0  0
    2.0143   21.9852    5.7773 O   0  0  0  0  0  0  0  0  0  0  0  0
    2.0143   -0.0007   19.5773 O   0  0  0  0  0  0  0  0  0  0  0  0
    2.0143   21.9852   19.5773 O   0  0  0  0  0  0  0  0  0  0  0  0
   13.0073   10.9923    5.7773 O   0  0  0  0  0  0  0  0  0  0  0  0
   13.0073   10.9923   19.5773 O   0  0  0  0  0  0  0  0  0  0  0  0
   13.0073   -0.0007    5.7773 O   0  0  0  0  0  0  0  0  0  0  0  0
   13.0073   21.9852    5.7773 O   0  0  0  0  0  0  0  0  0  0  0  0
   13.0073   -0.0007   19.5773 O   0  0  0  0  0  0  0  0  0  0  0  0
   13.0073   21.9852   19.5773 O   0  0  0  0  0  0  0  0  0  0  0  0
    0.0021    8.9729    8.0223 O   0  0  0  0  0  0  0  0  0  0  0  0
   21.9880    8.9729    8.0223 O   0  0  0  0  0  0  0  0  0  0  0  0
    0.0021    8.9729   21.8223 O   0  0  0  0  0  0  0  0  0  0  0  0
   21.9880    8.9729   21.8223 O   0  0  0  0  0  0  0  0  0  0  0  0
    0.0021   19.9659    8.0223 O   0  0  0  0  0  0  0  0  0  0  0  0
   21.9880   19.9659    8.0223 O   0  0  0  0  0  0  0  0  0  0  0  0
    0.0021   19.9659   21.8223 O   0  0  0  0  0  0  0  0  0  0  0  0
   21.9880   19.9659   21.8223 O   0  0  0  0  0  0  0  0  0  0  0  0
   10.9951    8.9729    8.0223 O   0  0  0  0  0  0  0  0  0  0  0  0
   10.9951    8.9729   21.8223 O   0  0  0  0  0  0  0  0  0  0  0  0
   10.9951   19.9659    8.0223 O   0  0  0  0  0  0  0  0  0  0  0  0
   10.9951   19.9659   21.8223 O   0  0  0  0  0  0  0  0  0  0  0  0
    0.0021    8.9729    5.7777 O   0  0  0  0  0  0  0  0  0  0  0  0
   21.9880    8.9729    5.7777 O   0  0  0  0  0  0  0  0  0  0  0  0
    0.0021    8.9729   19.5777 O   0  0  0  0  0  0  0  0  0  0  0  0
   21.9880    8.9729   19.5777 O   0  0  0  0  0  0  0  0  0  0  0  0
    0.0021   19.9659    5.7777 O   0  0  0  0  0  0  0  0  0  0  0  0
   21.9880   19.9659    5.7777 O   0  0  0  0  0  0  0  0  0  0  0  0
    0.0021   19.9659   19.5777 O   0  0  0  0  0  0  0  0  0  0  0  0
   21.9880   19.9659   19.5777 O   0  0  0  0  0  0  0  0  0  0  0  0
   10.9951    8.9729    5.7777 O   0  0  0  0  0  0  0  0  0  0  0  0
   10.9951    8.9729   19.5777 O   0  0  0  0  0  0  0  0  0  0  0  0
   10.9951   19.9659    5.7777 O   0  0  0  0  0  0  0  0  0  0  0  0
   10.9951   19.9659   19.5777 O   0  0  0  0  0  0  0  0  0  0  0  0
   10.9929    2.0169    8.0225 O   0  0  0  0  0  0  0  0  0  0  0  0
   10.9929    2.0169   21.8225 O   0  0  0  0  0  0  0  0  0  0  0  0
   10.9929   13.0099    8.0225 O   0  0  0  0  0  0  0  0  0  0  0  0
   10.9929   13.0099   21.8225 O   0  0  0  0  0  0  0  0  0  0  0  0
   -0.0001    2.0169    8.0225 O   0  0  0  0  0  0  0  0  0  0  0  0
   21.9859    2.0169    8.0225 O   0  0  0  0  0  0  0  0  0  0  0  0
   -0.0001    2.0169   21.8225 O   0  0  0  0  0  0  0  0  0  0  0  0
   21.9859    2.0169   21.8225 O   0  0  0  0  0  0  0  0  0  0  0  0
   -0.0001   13.0099    8.0225 O   0  0  0  0  0  0  0  0  0  0  0  0
   21.9859   13.0099    8.0225 O   0  0  0  0  0  0  0  0  0  0  0  0
   -0.0001   13.0099   21.8225 O   0  0  0  0  0  0  0  0  0  0  0  0
   21.9859   13.0099   21.8225 O   0  0  0  0  0  0  0  0  0  0  0  0
   10.9929    2.0169    5.7775 O   0  0  0  0  0  0  0  0  0  0  0  0
   10.9929    2.0169   19.5775 O   0  0  0  0  0  0  0  0  0  0  0  0
   10.9929   13.0099    5.7775 O   0  0  0  0  0  0  0  0  0  0  0  0
   10.9929   13.0099   19.5775 O   0  0  0  0  0  0  0  0  0  0  0  0
   -0.0001    2.0169    5.7775 O   0  0  0  0  0  0  0  0  0  0  0  0
   21.9859    2.0169    5.7775 O   0  0  0  0  0  0  0  0  0  0  0  0
   -0.0001    2.0169   19.5775 O   0  0  0  0  0  0  0  0  0  0  0  0
   21.9859    2.0169   19.5775 O   0  0  0  0  0  0  0  0  0  0  0  0
   -0.0001   13.0099    5.7775 O   0  0  0  0  0  0  0  0  0  0  0  0
   21.9859   13.0099    5.7775 O   0  0  0  0  0  0  0  0  0  0  0  0
   -0.0001   13.0099   19.5775 O   0  0  0  0  0  0  0  0  0  0  0  0
   21.9859   13.0099   19.5775 O   0  0  0  0  0  0  0  0  0  0  0  0
  1417  1  0  0  0  0
  1447  1  0  0  0  0
  1477  1  0  0  0  0
  1503  1  0  0  0  0
  1521  1  0  0  0  0
  2418  1  0  0  0  0
  2448  1  0  0  0  0
  2478  1  0  0  0  0
  2504  1  0  0  0  0
  2522  1  0  0  0  0
  3419  1  0  0  0  0
  3449  1  0  0  0  0
  3479  1  0  0  0  0
  3519  1  0  0  0  0
  4420  1  0  0  0  0
  4450  1  0  0  0  0
  4480  1  0  0  0  0
  4505  1  0  0  0  0
  5421  1  0  0  0  0
  5451  1  0  0  0  0
  5481  1  0  0  0  0
  5520  1  0  0  0  0
  6422  1  0  0  0  0
  6452  1  0  0  0  0
  6482  1  0  0  0  0
  6506  1  0  0  0  0
  7423  1  0  0  0  0
  7471  1  0  0  0  0
  7495  1  0  0  0  0
  7527  1  0  0  0  0
  8424  1  0  0  0  0
  8453  1  0  0  0  0
  8496  1  0  0  0  0
  8528  1  0  0  0  0
  9425  1  0  0  0  0
  9472  1  0  0  0  0
  9497  1  0  0  0  0
  9529  1  0  0  0  0
 10426  1  0  0  0  0
 10454  1  0  0  0  0
 10498  1  0  0  0  0
 10530  1  0  0  0  0
 11427  1  0  0  0  0
 11473  1  0  0  0  0
 11523  1  0  0  0  0
 12428  1  0  0  0  0
 12474  1  0  0  0  0
 12499  1  0  0  0  0
 13429  1  0  0  0  0
 13455  1  0  0  0  0
 13524  1  0  0  0  0
 14430  1  0  0  0  0
 14456  1  0  0  0  0
 14500  1  0  0  0  0
 15431  1  0  0  0  0
 15475  1  0  0  0  0
 15525  1  0  0  0  0
 16432  1  0  0  0  0
 16476  1  0  0  0  0
 16501  1  0  0  0  0
 17433  1  0  0  0  0
 17457  1  0  0  0  0
 17526  1  0  0  0  0
 18434  1  0  0  0  0
 18458  1  0  0  0  0
 18502  1  0  0  0  0
 19399  1  0  0  0  0
 19435  1  0  0  0  0
 19465  1  0  0  0  0
 19491  1  0  0  0  0
 19509  1  0  0  0  0
 20400  1  0  0  0  0
 20436  1  0  0  0  0
 20466  1  0  0  0  0
 20492  1  0  0  0  0
 20510  1  0  0  0  0
 21401  1  0  0  0  0
 21437  1  0  0  0  0
 21467  1  0  0  0  0
 21507  1  0  0  0  0
 22402  1  0  0  0  0
 22438  1  0  0  0  0
 22468  1  0  0  0  0
 22493  1  0  0  0  0
 23403  1  0  0  0  0
 23439  1  0  0  0  0
 23469  1  0  0  0  0
 23508  1  0  0  0  0
 24404  1  0  0  0  0
 24440  1  0  0  0  0
 24470  1  0  0  0  0
 24494  1  0  0  0  0
 25405  1  0  0  0  0
 25459  1  0  0  0  0
 25483  1  0  0  0  0
 25515  1  0  0  0  0
 26406  1  0  0  0  0
 26441  1  0  0  0  0
 26484  1  0  0  0  0
 26516  1  0  0  0  0
 27407  1  0  0  0  0
 27460  1  0  0  0  0
 27485  1  0  0  0  0
 27517  1  0  0  0  0
 28408  1  0  0  0  0
 28442  1  0  0  0  0
 28486  1  0  0  0  0
 28518  1  0  0  0  0
 29409  1  0  0  0  0
 29461  1  0  0  0  0
 29511  1  0  0  0  0
 30410  1  0  0  0  0
 30462  1  0  0  0  0
 30487  1  0  0  0  0
 31411  1  0  0  0  0
 31443  1  0  0  0  0
 31512  1  0  0  0  0
 32412  1  0  0  0  0
 32444  1  0  0  0  0
 32488  1  0  0  0  0
 33413  1  0  0  0  0
 33463  1  0  0  0  0
 33513  1  0  0  0  0
 34414  1  0  0  0  0
 34464  1  0  0  0  0
 34489  1  0  0  0  0
 35415  1  0  0  0  0
 35445  1  0  0  0  0
 35514  1  0  0  0  0
 36416  1  0  0  0  0
 36446  1  0  0  0  0
 36490  1  0  0  0  0
 37213  1  0  0  0  0
 38214  1  0  0  0  0
 39215  1  0  0  0  0
 40216  1  0  0  0  0
 41217  1  0  0  0  0
 42218  1  0  0  0  0
 43219  1  0  0  0  0
 44220  1  0  0  0  0
 45213  1  0  0  0  0
 46214  1  0  0  0  0
 47215  1  0  0  0  0
 48216  1  0  0  0  0
 49217  1  0  0  0  0
 50218  1  0  0  0  0
 51219  1  0  0  0  0
 52220  1  0  0  0  0
 53213  1  0  0  0  0
 54214  1  0  0  0  0
 55215  1  0  0  0  0
 56216  1  0  0  0  0
 57217  1  0  0  0  0
 58218  1  0  0  0  0
 59219  1  0  0  0  0
 60220  1  0  0  0  0
 61153  1  0  0  0  0
 62154  1  0  0  0  0
 63155  1  0  0  0  0
 64156  1  0  0  0  0
 65157  1  0  0  0  0
 66158  1  0  0  0  0
 67159  1  0  0  0  0
 68160  1  0  0  0  0
 69173  1  0  0  0  0
 70174  1  0  0  0  0
 71175  1  0  0  0  0
 72176  1  0  0  0  0
 73177  1  0  0  0  0
 74178  1  0  0  0  0
 75179  1  0  0  0  0
 76180  1  0  0  0  0
 77181  1  0  0  0  0
 78182  1  0  0  0  0
 79183  1  0  0  0  0
 80184  1  0  0  0  0
 81185  1  0  0  0  0
 82186  1  0  0  0  0
 83187  1  0  0  0  0
 84188  1  0  0  0  0
 85301  1  0  0  0  0
 86302  1  0  0  0  0
 87303  1  0  0  0  0
 88304  1  0  0  0  0
 89305  1  0  0  0  0
 90306  1  0  0  0  0
 91307  1  0  0  0  0
 92308  1  0  0  0  0
 93301  1  0  0  0  0
 94302  1  0  0  0  0
 95303  1  0  0  0  0
 96304  1  0  0  0  0
 97305  1  0  0  0  0
 98306  1  0  0  0  0
 99307  1  0  0  0  0
100308  1  0  0  0  0
101301  1  0  0  0  0
102302  1  0  0  0  0
103303  1  0  0  0  0
104304  1  0  0  0  0
105305  1  0  0  0  0
106306  1  0  0  0  0
107307  1  0  0  0  0
108308  1  0  0  0  0
109241  1  0  0  0  0
110242  1  0  0  0  0
111243  1  0  0  0  0
112244  1  0  0  0  0
113245  1  0  0  0  0
114246  1  0  0  0  0
115247  1  0  0  0  0
116248  1  0  0  0  0
117261  1  0  0  0  0
118262  1  0  0  0  0
119263  1  0  0  0  0
120264  1  0  0  0  0
121265  1  0  0  0  0
122266  1  0  0  0  0
123267  1  0  0  0  0
124268  1  0  0  0  0
125269  1  0  0  0  0
126270  1  0  0  0  0
127271  1  0  0  0  0
128272  1  0  0  0  0
129273  1  0  0  0  0
130274  1  0  0  0  0
131275  1  0  0  0  0
132276  1  0  0  0  0
133147  1  0  0  0  0
133181  1  0  0  0  0
133189  1  0  0  0  0
134148  1  0  0  0  0
134182  1  0  0  0  0
134190  1  0  0  0  0
135145  1  0  0  0  0
135191  1  0  0  0  0
136183  1  0  0  0  0
136192  1  0  0  0  0
137146  1  0  0  0  0
137193  1  0  0  0  0
138184  1  0  0  0  0
138194  1  0  0  0  0
139151  1  0  0  0  0
139185  1  0  0  0  0
139195  1  0  0  0  0
140152  1  0  0  0  0
140186  1  0  0  0  0
140196  1  0  0  0  0
141149  1  0  0  0  0
141197  1  0  0  0  0
142187  1  0  0  0  0
142198  1  0  0  0  0
143150  1  0  0  0  0
143199  1  0  0  0  0
144188  1  0  0  0  0
144200  1  0  0  0  0
145153  1  0  0  0  0
145213  1  0  0  0  0
146154  1  0  0  0  0
146214  1  0  0  0  0
147155  1  0  0  0  0
147215  1  0  0  0  0
148156  1  0  0  0  0
148216  1  0  0  0  0
149157  1  0  0  0  0
149217  1  0  0  0  0
150158  1  0  0  0  0
150218  1  0  0  0  0
151159  1  0  0  0  0
151219  1  0  0  0  0
152160  1  0  0  0  0
152220  1  0  0  0  0
153163  1  0  0  0  0
154165  1  0  0  0  0
155161  1  0  0  0  0
156162  1  0  0  0  0
157169  1  0  0  0  0
158171  1  0  0  0  0
159167  1  0  0  0  0
160168  1  0  0  0  0
161173  1  0  0  0  0
161201  1  0  0  0  0
162174  1  0  0  0  0
162202  1  0  0  0  0
163203  1  0  0  0  0
164175  1  0  0  0  0
164204  1  0  0  0  0
165205  1  0  0  0  0
166176  1  0  0  0  0
166206  1  0  0  0  0
167177  1  0  0  0  0
167207  1  0  0  0  0
168178  1  0  0  0  0
168208  1  0  0  0  0
169209  1  0  0  0  0
170179  1  0  0  0  0
170210  1  0  0  0  0
171211  1  0  0  0  0
172180  1  0  0  0  0
172212  1  0  0  0  0
173181  1  0  0  0  0
174182  1  0  0  0  0
175183  1  0  0  0  0
176184  1  0  0  0  0
177185  1  0  0  0  0
178186  1  0  0  0  0
179187  1  0  0  0  0
180188  1  0  0  0  0
189435  1  0  0  0  0
189447  1  0  0  0  0
190436  1  0  0  0  0
190448  1  0  0  0  0
191437  1  0  0  0  0
191449  1  0  0  0  0
192438  1  0  0  0  0
192450  1  0  0  0  0
193439  1  0  0  0  0
193451  1  0  0  0  0
194440  1  0  0  0  0
194452  1  0  0  0  0
195441  1  0  0  0  0
195453  1  0  0  0  0
196442  1  0  0  0  0
196454  1  0  0  0  0
197443  1  0  0  0  0
197455  1  0  0  0  0
198444  1  0  0  0  0
198456  1  0  0  0  0
199445  1  0  0  0  0
199457  1  0  0  0  0
200446  1  0  0  0  0
200458  1  0  0  0  0
201459  1  0  0  0  0
201471  1  0  0  0  0
202460  1  0  0  0  0
202472  1  0  0  0  0
203461  1  0  0  0  0
203473  1  0  0  0  0
204462  1  0  0  0  0
204474  1  0  0  0  0
205463  1  0  0  0  0
205475  1  0  0  0  0
206464  1  0  0  0  0
206476  1  0  0  0  0
207465  1  0  0  0  0
207477  1  0  0  0  0
208466  1  0  0  0  0
208478  1  0  0  0  0
209467  1  0  0  0  0
209479  1  0  0  0  0
210468  1  0  0  0  0
210480  1  0  0  0  0
211469  1  0  0  0  0
211481  1  0  0  0  0
212470  1  0  0  0  0
212482  1  0  0  0  0
221269  1  0  0  0  0
221277  1  0  0  0  0
222237  1  0  0  0  0
222278  1  0  0  0  0
223270  1  0  0  0  0
223279  1  0  0  0  0
224238  1  0  0  0  0
224280  1  0  0  0  0
225271  1  0  0  0  0
225281  1  0  0  0  0
226239  1  0  0  0  0
226282  1  0  0  0  0
227272  1  0  0  0  0
227283  1  0  0  0  0
228240  1  0  0  0  0
228284  1  0  0  0  0
229233  1  0  0  0  0
229273  1  0  0  0  0
229285  1  0  0  0  0
230234  1  0  0  0  0
230274  1  0  0  0  0
230286  1  0  0  0  0
231235  1  0  0  0  0
231275  1  0  0  0  0
231287  1  0  0  0  0
232236  1  0  0  0  0
232276  1  0  0  0  0
232288  1  0  0  0  0
233241  1  0  0  0  0
233301  1  0  0  0  0
234242  1  0  0  0  0
234302  1  0  0  0  0
235243  1  0  0  0  0
235303  1  0  0  0  0
236244  1  0  0  0  0
236304  1  0  0  0  0
237245  1  0  0  0  0
237305  1  0  0  0  0
238246  1  0  0  0  0
238306  1  0  0  0  0
239247  1  0  0  0  0
239307  1  0  0  0  0
240248  1  0  0  0  0
240308  1  0  0  0  0
241257  1  0  0  0  0
242258  1  0  0  0  0
243259  1  0  0  0  0
244260  1  0  0  0  0
245250  1  0  0  0  0
246252  1  0  0  0  0
247254  1  0  0  0  0
248256  1  0  0  0  0
249261  1  0  0  0  0
249289  1  0  0  0  0
250290  1  0  0  0  0
251262  1  0  0  0  0
251291  1  0  0  0  0
252292  1  0  0  0  0
253263  1  0  0  0  0
253293  1  0  0  0  0
254294  1  0  0  0  0
255264  1  0  0  0  0
255295  1  0  0  0  0
256296  1  0  0  0  0
257265  1  0  0  0  0
257297  1  0  0  0  0
258266  1  0  0  0  0
258298  1  0  0  0  0
259267  1  0  0  0  0
259299  1  0  0  0  0
260268  1  0  0  0  0
260300  1  0  0  0  0
261269  1  0  0  0  0
262270  1  0  0  0  0
263271  1  0  0  0  0
264272  1  0  0  0  0
265273  1  0  0  0  0
266274  1  0  0  0  0
267275  1  0  0  0  0
268276  1  0  0  0  0
277483  1  0  0  0  0
277495  1  0  0  0  0
278484  1  0  0  0  0
278496  1  0  0  0  0
279485  1  0  0  0  0
279497  1  0  0  0  0
280486  1  0  0  0  0
280498  1  0  0  0  0
281487  1  0  0  0  0
281499  1  0  0  0  0
282488  1  0  0  0  0
282500  1  0  0  0  0
283489  1  0  0  0  0
283501  1  0  0  0  0
284490  1  0  0  0  0
284502  1  0  0  0  0
285491  1  0  0  0  0
285503  1  0  0  0  0
286492  1  0  0  0  0
286504  1  0  0  0  0
287493  1  0  0  0  0
287505  1  0  0  0  0
288494  1  0  0  0  0
288506  1  0  0  0  0
289511  1  0  0  0  0
289523  1  0  0  0  0
290512  1  0  0  0  0
290524  1  0  0  0  0
291513  1  0  0  0  0
291525  1  0  0  0  0
292514  1  0  0  0  0
292526  1  0  0  0  0
293515  1  0  0  0  0
293527  1  0  0  0  0
294516  1  0  0  0  0
294528  1  0  0  0  0
295517  1  0  0  0  0
295529  1  0  0  0  0
296518  1  0  0  0  0
296530  1  0  0  0  0
297507  1  0  0  0  0
297519  1  0  0  0  0
298508  1  0  0  0  0
298520  1  0  0  0  0
299509  1  0  0  0  0
299521  1  0  0  0  0
300510  1  0  0  0  0
300522  1  0  0  0  0
309339  1  0  0  0  0
309405  1  0  0  0  0
310340  1  0  0  0  0
310406  1  0  0  0  0
311342  1  0  0  0  0
311407  1  0  0  0  0
312344  1  0  0  0  0
312408  1  0  0  0  0
313327  1  0  0  0  0
313409  1  0  0  0  0
314328  1  0  0  0  0
314410  1  0  0  0  0
315329  1  0  0  0  0
315411  1  0  0  0  0
316330  1  0  0  0  0
316412  1  0  0  0  0
317332  1  0  0  0  0
317413  1  0  0  0  0
318334  1  0  0  0  0
318414  1  0  0  0  0
319336  1  0  0  0  0
319415  1  0  0  0  0
320338  1  0  0  0  0
320416  1  0  0  0  0
321351  1  0  0  0  0
321399  1  0  0  0  0
322353  1  0  0  0  0
322400  1  0  0  0  0
323345  1  0  0  0  0
323401  1  0  0  0  0
324346  1  0  0  0  0
324402  1  0  0  0  0
325348  1  0  0  0  0
325403  1  0  0  0  0
326350  1  0  0  0  0
326404  1  0  0  0  0
327362  1  0  0  0  0
328363  1  0  0  0  0
329364  1  0  0  0  0
330365  1  0  0  0  0
331354  1  0  0  0  0
332355  1  0  0  0  0
333356  1  0  0  0  0
334357  1  0  0  0  0
335358  1  0  0  0  0
336359  1  0  0  0  0
337360  1  0  0  0  0
338361  1  0  0  0  0
339370  1  0  0  0  0
340371  1  0  0  0  0
341366  1  0  0  0  0
342367  1  0  0  0  0
343368  1  0  0  0  0
344369  1  0  0  0  0
345376  1  0  0  0  0
346377  1  0  0  0  0
347372  1  0  0  0  0
348373  1  0  0  0  0
349374  1  0  0  0  0
350375  1  0  0  0  0
351380  1  0  0  0  0
352378  1  0  0  0  0
353379  1  0  0  0  0
354385  1  0  0  0  0
356386  1  0  0  0  0
358387  1  0  0  0  0
360388  1  0  0  0  0
362389  1  0  0  0  0
363390  1  0  0  0  0
364391  1  0  0  0  0
365392  1  0  0  0  0
366381  1  0  0  0  0
368382  1  0  0  0  0
370383  1  0  0  0  0
371384  1  0  0  0  0
372395  1  0  0  0  0
374396  1  0  0  0  0
376397  1  0  0  0  0
377398  1  0  0  0  0
378393  1  0  0  0  0
380394  1  0  0  0  0
381423  1  0  0  0  0
382424  1  0  0  0  0
383425  1  0  0  0  0
384426  1  0  0  0  0
385427  1  0  0  0  0
386428  1  0  0  0  0
387429  1  0  0  0  0
388430  1  0  0  0  0
389431  1  0  0  0  0
390432  1  0  0  0  0
391433  1  0  0  0  0
392434  1  0  0  0  0
393417  1  0  0  0  0
394418  1  0  0  0  0
395419  1  0  0  0  0
396420  1  0  0  0  0
397421  1  0  0  0  0
398422  1  0  0  0  0
M  END
$$$$
