@<TRIPOS>MOLECULE
cu_ch3_btc_tbo
1970 2232 0 0 0
SMALL
NO_CHARGES

@<TRIPOS>ATOM
     1 Cu1        18.809900     0.000000    18.809900 Cu   1 RES 0.0000
     2 Cu2        18.809900    26.343000    18.809900 Cu   1 RES 0.0000
     3 Cu3        -5.638400    13.171500     7.533100 Cu   1 RES 0.0000
     4 Cu4        20.704600    13.171500     7.533100 Cu   1 RES 0.0000
     5 Cu5        -5.638400     0.000000     5.638400 Cu   1 RES 0.0000
     6 Cu6        -5.638400     0.000000    31.981400 Cu   1 RES 0.0000
     7 Cu7        -5.638400    26.343000     5.638400 Cu   1 RES 0.0000
     8 Cu8        -5.638400    26.343000    31.981400 Cu   1 RES 0.0000
     9 Cu9        20.704600     0.000000     5.638400 Cu   1 RES 0.0000
    10 Cu10       20.704600     0.000000    31.981400 Cu   1 RES 0.0000
    11 Cu11       20.704600    26.343000     5.638400 Cu   1 RES 0.0000
    12 Cu12       20.704600    26.343000    31.981400 Cu   1 RES 0.0000
    13 Cu13       18.809900     0.000000     7.533100 Cu   1 RES 0.0000
    14 Cu14       18.809900    26.343000     7.533100 Cu   1 RES 0.0000
    15 Cu15       13.171500    18.809900     5.638400 Cu   1 RES 0.0000
    16 Cu16       13.171500    18.809900    31.981400 Cu   1 RES 0.0000
    17 Cu17        0.000000     7.533100     7.533100 Cu   1 RES 0.0000
    18 Cu18       26.343000     7.533100     7.533100 Cu   1 RES 0.0000
    19 Cu19        0.000000     5.638400    -5.638400 Cu   1 RES 0.0000
    20 Cu20        0.000000     5.638400    20.704600 Cu   1 RES 0.0000
    21 Cu21        0.000000    31.981400    -5.638400 Cu   1 RES 0.0000
    22 Cu22        0.000000    31.981400    20.704600 Cu   1 RES 0.0000
    23 Cu23       26.343000     5.638400    -5.638400 Cu   1 RES 0.0000
    24 Cu24       26.343000     5.638400    20.704600 Cu   1 RES 0.0000
    25 Cu25       26.343000    31.981400    -5.638400 Cu   1 RES 0.0000
    26 Cu26       26.343000    31.981400    20.704600 Cu   1 RES 0.0000
    27 Cu27        0.000000     7.533100    18.809900 Cu   1 RES 0.0000
    28 Cu28       26.343000     7.533100    18.809900 Cu   1 RES 0.0000
    29 Cu29       18.809900    18.809900     0.000000 Cu   1 RES 0.0000
    30 Cu30       18.809900    18.809900    26.343000 Cu   1 RES 0.0000
    31 Cu31       -5.638400     7.533100    13.171500 Cu   1 RES 0.0000
    32 Cu32       20.704600     7.533100    13.171500 Cu   1 RES 0.0000
    33 Cu33       18.809900     7.533100     0.000000 Cu   1 RES 0.0000
    34 Cu34       18.809900     7.533100    26.343000 Cu   1 RES 0.0000
    35 Cu35       -5.638400     5.638400     0.000000 Cu   1 RES 0.0000
    36 Cu36       -5.638400     5.638400    26.343000 Cu   1 RES 0.0000
    37 Cu37       -5.638400    31.981400     0.000000 Cu   1 RES 0.0000
    38 Cu38       -5.638400    31.981400    26.343000 Cu   1 RES 0.0000
    39 Cu39       20.704600     5.638400     0.000000 Cu   1 RES 0.0000
    40 Cu40       20.704600     5.638400    26.343000 Cu   1 RES 0.0000
    41 Cu41       20.704600    31.981400     0.000000 Cu   1 RES 0.0000
    42 Cu42       20.704600    31.981400    26.343000 Cu   1 RES 0.0000
    43 Cu43       18.809900    13.171500     5.638400 Cu   1 RES 0.0000
    44 Cu44       18.809900    13.171500    31.981400 Cu   1 RES 0.0000
    45 Cu45       -5.638400     0.000000    -5.638400 Cu   1 RES 0.0000
    46 Cu46       -5.638400     0.000000    20.704600 Cu   1 RES 0.0000
    47 Cu47       -5.638400    26.343000    -5.638400 Cu   1 RES 0.0000
    48 Cu48       -5.638400    26.343000    20.704600 Cu   1 RES 0.0000
    49 Cu49       20.704600     0.000000    -5.638400 Cu   1 RES 0.0000
    50 Cu50       20.704600     0.000000    20.704600 Cu   1 RES 0.0000
    51 Cu51       20.704600    26.343000    -5.638400 Cu   1 RES 0.0000
    52 Cu52       20.704600    26.343000    20.704600 Cu   1 RES 0.0000
    53 Cu53       -5.638400    13.171500    18.809900 Cu   1 RES 0.0000
    54 Cu54       20.704600    13.171500    18.809900 Cu   1 RES 0.0000
    55 Cu55       18.809900    13.171500    -5.638400 Cu   1 RES 0.0000
    56 Cu56       18.809900    13.171500    20.704600 Cu   1 RES 0.0000
    57 Cu57       13.171500     5.638400    18.809900 Cu   1 RES 0.0000
    58 Cu58       13.171500    31.981400    18.809900 Cu   1 RES 0.0000
    59 Cu59       -0.000000    -5.638400    -5.638400 Cu   1 RES 0.0000
    60 Cu60       -0.000000    -5.638400    20.704600 Cu   1 RES 0.0000
    61 Cu61        0.000000    20.704600    -5.638400 Cu   1 RES 0.0000
    62 Cu62        0.000000    20.704600    20.704600 Cu   1 RES 0.0000
    63 Cu63       26.343000    -5.638400    -5.638400 Cu   1 RES 0.0000
    64 Cu64       26.343000    -5.638400    20.704600 Cu   1 RES 0.0000
    65 Cu65       26.343000    20.704600    -5.638400 Cu   1 RES 0.0000
    66 Cu66       26.343000    20.704600    20.704600 Cu   1 RES 0.0000
    67 Cu67        0.000000    18.809900     7.533100 Cu   1 RES 0.0000
    68 Cu68       26.343000    18.809900     7.533100 Cu   1 RES 0.0000
    69 Cu69       -0.000000    -5.638400     5.638400 Cu   1 RES 0.0000
    70 Cu70       -0.000000    -5.638400    31.981400 Cu   1 RES 0.0000
    71 Cu71        0.000000    20.704600     5.638400 Cu   1 RES 0.0000
    72 Cu72        0.000000    20.704600    31.981400 Cu   1 RES 0.0000
    73 Cu73       26.343000    -5.638400     5.638400 Cu   1 RES 0.0000
    74 Cu74       26.343000    -5.638400    31.981400 Cu   1 RES 0.0000
    75 Cu75       26.343000    20.704600     5.638400 Cu   1 RES 0.0000
    76 Cu76       26.343000    20.704600    31.981400 Cu   1 RES 0.0000
    77 Cu77       18.809900     5.638400    13.171500 Cu   1 RES 0.0000
    78 Cu78       18.809900    31.981400    13.171500 Cu   1 RES 0.0000
    79 Cu79       -5.638400    -5.638400    -0.000000 Cu   1 RES 0.0000
    80 Cu80       -5.638400    -5.638400    26.343000 Cu   1 RES 0.0000
    81 Cu81       -5.638400    20.704600     0.000000 Cu   1 RES 0.0000
    82 Cu82       -5.638400    20.704600    26.343000 Cu   1 RES 0.0000
    83 Cu83       20.704600    -5.638400     0.000000 Cu   1 RES 0.0000
    84 Cu84       20.704600    -5.638400    26.343000 Cu   1 RES 0.0000
    85 Cu85       20.704600    20.704600     0.000000 Cu   1 RES 0.0000
    86 Cu86       20.704600    20.704600    26.343000 Cu   1 RES 0.0000
    87 Cu87       18.809900    -5.638400    13.171500 Cu   1 RES 0.0000
    88 Cu88       18.809900    20.704600    13.171500 Cu   1 RES 0.0000
    89 Cu89       -5.638400    18.809900    13.171500 Cu   1 RES 0.0000
    90 Cu90       20.704600    18.809900    13.171500 Cu   1 RES 0.0000
    91 Cu91        5.638400     0.000000     5.638400 Cu   1 RES 0.0000
    92 Cu92        5.638400     0.000000    31.981400 Cu   1 RES 0.0000
    93 Cu93        5.638400    26.343000     5.638400 Cu   1 RES 0.0000
    94 Cu94        5.638400    26.343000    31.981400 Cu   1 RES 0.0000
    95 Cu95       31.981400     0.000000     5.638400 Cu   1 RES 0.0000
    96 Cu96       31.981400     0.000000    31.981400 Cu   1 RES 0.0000
    97 Cu97       31.981400    26.343000     5.638400 Cu   1 RES 0.0000
    98 Cu98       31.981400    26.343000    31.981400 Cu   1 RES 0.0000
    99 Cu99        7.533100    13.171500    -5.638400 Cu   1 RES 0.0000
   100 Cu100       7.533100    13.171500    20.704600 Cu   1 RES 0.0000
   101 Cu101       7.533100     0.000000    18.809900 Cu   1 RES 0.0000
   102 Cu102       7.533100    26.343000    18.809900 Cu   1 RES 0.0000
   103 Cu103       5.638400     0.000000    -5.638400 Cu   1 RES 0.0000
   104 Cu104       5.638400     0.000000    20.704600 Cu   1 RES 0.0000
   105 Cu105       5.638400    26.343000    -5.638400 Cu   1 RES 0.0000
   106 Cu106       5.638400    26.343000    20.704600 Cu   1 RES 0.0000
   107 Cu107      31.981400     0.000000    -5.638400 Cu   1 RES 0.0000
   108 Cu108      31.981400     0.000000    20.704600 Cu   1 RES 0.0000
   109 Cu109      31.981400    26.343000    -5.638400 Cu   1 RES 0.0000
   110 Cu110      31.981400    26.343000    20.704600 Cu   1 RES 0.0000
   111 Cu111       0.000000    18.809900    18.809900 Cu   1 RES 0.0000
   112 Cu112      26.343000    18.809900    18.809900 Cu   1 RES 0.0000
   113 Cu113      13.171500     7.533100    -5.638400 Cu   1 RES 0.0000
   114 Cu114      13.171500     7.533100    20.704600 Cu   1 RES 0.0000
   115 Cu115      13.171500     5.638400     7.533100 Cu   1 RES 0.0000
   116 Cu116      13.171500    31.981400     7.533100 Cu   1 RES 0.0000
   117 Cu117      13.171500     7.533100     5.638400 Cu   1 RES 0.0000
   118 Cu118      13.171500     7.533100    31.981400 Cu   1 RES 0.0000
   119 Cu119       5.638400    18.809900    13.171500 Cu   1 RES 0.0000
   120 Cu120      31.981400    18.809900    13.171500 Cu   1 RES 0.0000
   121 Cu121       7.533100     7.533100     0.000000 Cu   1 RES 0.0000
   122 Cu122       7.533100     7.533100    26.343000 Cu   1 RES 0.0000
   123 Cu123       5.638400     7.533100    13.171500 Cu   1 RES 0.0000
   124 Cu124      31.981400     7.533100    13.171500 Cu   1 RES 0.0000
   125 Cu125       7.533100     5.638400    13.171500 Cu   1 RES 0.0000
   126 Cu126       7.533100    31.981400    13.171500 Cu   1 RES 0.0000
   127 Cu127       5.638400    13.171500    18.809900 Cu   1 RES 0.0000
   128 Cu128      31.981400    13.171500    18.809900 Cu   1 RES 0.0000
   129 Cu129       7.533100     0.000000     7.533100 Cu   1 RES 0.0000
   130 Cu130       7.533100    26.343000     7.533100 Cu   1 RES 0.0000
   131 Cu131       7.533100    13.171500     5.638400 Cu   1 RES 0.0000
   132 Cu132       7.533100    13.171500    31.981400 Cu   1 RES 0.0000
   133 Cu133       5.638400    13.171500     7.533100 Cu   1 RES 0.0000
   134 Cu134      31.981400    13.171500     7.533100 Cu   1 RES 0.0000
   135 Cu135       0.000000     5.638400     5.638400 Cu   1 RES 0.0000
   136 Cu136       0.000000     5.638400    31.981400 Cu   1 RES 0.0000
   137 Cu137       0.000000    31.981400     5.638400 Cu   1 RES 0.0000
   138 Cu138       0.000000    31.981400    31.981400 Cu   1 RES 0.0000
   139 Cu139      26.343000     5.638400     5.638400 Cu   1 RES 0.0000
   140 Cu140      26.343000     5.638400    31.981400 Cu   1 RES 0.0000
   141 Cu141      26.343000    31.981400     5.638400 Cu   1 RES 0.0000
   142 Cu142      26.343000    31.981400    31.981400 Cu   1 RES 0.0000
   143 Cu143      13.171500    -5.638400     7.533100 Cu   1 RES 0.0000
   144 Cu144      13.171500    20.704600     7.533100 Cu   1 RES 0.0000
   145 Cu145      13.171500    18.809900    -5.638400 Cu   1 RES 0.0000
   146 Cu146      13.171500    18.809900    20.704600 Cu   1 RES 0.0000
   147 Cu147      13.171500    -5.638400    18.809900 Cu   1 RES 0.0000
   148 Cu148      13.171500    20.704600    18.809900 Cu   1 RES 0.0000
   149 Cu149       5.638400     5.638400     0.000000 Cu   1 RES 0.0000
   150 Cu150       5.638400     5.638400    26.343000 Cu   1 RES 0.0000
   151 Cu151       5.638400    31.981400     0.000000 Cu   1 RES 0.0000
   152 Cu152       5.638400    31.981400    26.343000 Cu   1 RES 0.0000
   153 Cu153      31.981400     5.638400     0.000000 Cu   1 RES 0.0000
   154 Cu154      31.981400     5.638400    26.343000 Cu   1 RES 0.0000
   155 Cu155      31.981400    31.981400     0.000000 Cu   1 RES 0.0000
   156 Cu156      31.981400    31.981400    26.343000 Cu   1 RES 0.0000
   157 Cu157       7.533100    -5.638400    13.171500 Cu   1 RES 0.0000
   158 Cu158       7.533100    20.704600    13.171500 Cu   1 RES 0.0000
   159 Cu159       5.638400    -5.638400     0.000000 Cu   1 RES 0.0000
   160 Cu160       5.638400    -5.638400    26.343000 Cu   1 RES 0.0000
   161 Cu161       5.638400    20.704600     0.000000 Cu   1 RES 0.0000
   162 Cu162       5.638400    20.704600    26.343000 Cu   1 RES 0.0000
   163 Cu163      31.981400    -5.638400     0.000000 Cu   1 RES 0.0000
   164 Cu164      31.981400    -5.638400    26.343000 Cu   1 RES 0.0000
   165 Cu165      31.981400    20.704600     0.000000 Cu   1 RES 0.0000
   166 Cu166      31.981400    20.704600    26.343000 Cu   1 RES 0.0000
   167 Cu167       7.533100    18.809900     0.000000 Cu   1 RES 0.0000
   168 Cu168       7.533100    18.809900    26.343000 Cu   1 RES 0.0000
   169 H169      16.271002    20.213126     3.099502 H    1 RES 0.0000
   170 H170      16.271002    20.213126    29.442502 H    1 RES 0.0000
   171 H171      16.271002     6.129874    -3.099502 H    1 RES 0.0000
   172 H172      16.271002     6.129874    23.243498 H    1 RES 0.0000
   173 H173      -3.099502     7.041626    -3.099502 H    1 RES 0.0000
   174 H174      -3.099502     7.041626    23.243498 H    1 RES 0.0000
   175 H175      23.243498     7.041626    -3.099502 H    1 RES 0.0000
   176 H176      23.243498     7.041626    23.243498 H    1 RES 0.0000
   177 H177      -3.099502    19.301374     3.099502 H    1 RES 0.0000
   178 H178      -3.099502    19.301374    29.442502 H    1 RES 0.0000
   179 H179      23.243498    19.301374     3.099502 H    1 RES 0.0000
   180 H180      23.243498    19.301374    29.442502 H    1 RES 0.0000
   181 H181      20.213126    16.271002     3.099502 H    1 RES 0.0000
   182 H182      20.213126    16.271002    29.442502 H    1 RES 0.0000
   183 H183      19.301374    -3.099502     3.099502 H    1 RES 0.0000
   184 H184      19.301374    -3.099502    29.442502 H    1 RES 0.0000
   185 H185      19.301374    23.243498     3.099502 H    1 RES 0.0000
   186 H186      19.301374    23.243498    29.442502 H    1 RES 0.0000
   187 H187      20.213126    10.071998    -3.099502 H    1 RES 0.0000
   188 H188      20.213126    10.071998    23.243498 H    1 RES 0.0000
   189 H189      19.301374     3.099502    -3.099502 H    1 RES 0.0000
   190 H190      19.301374     3.099502    23.243498 H    1 RES 0.0000
   191 H191      19.301374    29.442502    -3.099502 H    1 RES 0.0000
   192 H192      19.301374    29.442502    23.243498 H    1 RES 0.0000
   193 H193      16.271002     6.129874     3.099502 H    1 RES 0.0000
   194 H194      16.271002     6.129874    29.442502 H    1 RES 0.0000
   195 H195      -3.099502     7.041626     3.099502 H    1 RES 0.0000
   196 H196      -3.099502     7.041626    29.442502 H    1 RES 0.0000
   197 H197      23.243498     7.041626     3.099502 H    1 RES 0.0000
   198 H198      23.243498     7.041626    29.442502 H    1 RES 0.0000
   199 H199      -3.099502    19.301374    -3.099502 H    1 RES 0.0000
   200 H200      -3.099502    19.301374    23.243498 H    1 RES 0.0000
   201 H201      23.243498    19.301374    -3.099502 H    1 RES 0.0000
   202 H202      23.243498    19.301374    23.243498 H    1 RES 0.0000
   203 H203      16.271002    20.213126    -3.099502 H    1 RES 0.0000
   204 H204      16.271002    20.213126    23.243498 H    1 RES 0.0000
   205 H205      16.271002    -3.099502    20.213126 H    1 RES 0.0000
   206 H206      16.271002    23.243498    20.213126 H    1 RES 0.0000
   207 H207      16.271002     3.099502     6.129874 H    1 RES 0.0000
   208 H208      16.271002    29.442502     6.129874 H    1 RES 0.0000
   209 H209      -3.099502    16.271002    20.213126 H    1 RES 0.0000
   210 H210      23.243498    16.271002    20.213126 H    1 RES 0.0000
   211 H211      -3.099502    10.071998     6.129874 H    1 RES 0.0000
   212 H212      23.243498    10.071998     6.129874 H    1 RES 0.0000
   213 H213      16.271002     7.041626    16.271002 H    1 RES 0.0000
   214 H214      16.271002    19.301374    10.071998 H    1 RES 0.0000
   215 H215      -3.099502    20.213126    10.071998 H    1 RES 0.0000
   216 H216      23.243498    20.213126    10.071998 H    1 RES 0.0000
   217 H217      -3.099502     6.129874    16.271002 H    1 RES 0.0000
   218 H218      23.243498     6.129874    16.271002 H    1 RES 0.0000
   219 H219      20.213126     3.099502    16.271002 H    1 RES 0.0000
   220 H220      20.213126    29.442502    16.271002 H    1 RES 0.0000
   221 H221      19.301374    10.071998    16.271002 H    1 RES 0.0000
   222 H222      20.213126    -3.099502    10.071998 H    1 RES 0.0000
   223 H223      20.213126    23.243498    10.071998 H    1 RES 0.0000
   224 H224      19.301374    16.271002    10.071998 H    1 RES 0.0000
   225 H225      16.271002    19.301374    16.271002 H    1 RES 0.0000
   226 H226      -3.099502    20.213126    16.271002 H    1 RES 0.0000
   227 H227      23.243498    20.213126    16.271002 H    1 RES 0.0000
   228 H228      -3.099502     6.129874    10.071998 H    1 RES 0.0000
   229 H229      23.243498     6.129874    10.071998 H    1 RES 0.0000
   230 H230      16.271002     7.041626    10.071998 H    1 RES 0.0000
   231 H231      16.271002    10.071998     7.041626 H    1 RES 0.0000
   232 H232      16.271002    16.271002    19.301374 H    1 RES 0.0000
   233 H233      -3.099502     3.099502     7.041626 H    1 RES 0.0000
   234 H234      -3.099502    29.442502     7.041626 H    1 RES 0.0000
   235 H235      23.243498     3.099502     7.041626 H    1 RES 0.0000
   236 H236      23.243498    29.442502     7.041626 H    1 RES 0.0000
   237 H237      -3.099502    -3.099502    19.301374 H    1 RES 0.0000
   238 H238      -3.099502    23.243498    19.301374 H    1 RES 0.0000
   239 H239      23.243498    -3.099502    19.301374 H    1 RES 0.0000
   240 H240      23.243498    23.243498    19.301374 H    1 RES 0.0000
   241 H241       3.099502    20.213126    16.271002 H    1 RES 0.0000
   242 H242      29.442502    20.213126    16.271002 H    1 RES 0.0000
   243 H243       3.099502     6.129874    10.071998 H    1 RES 0.0000
   244 H244      29.442502     6.129874    10.071998 H    1 RES 0.0000
   245 H245      10.071998     7.041626    10.071998 H    1 RES 0.0000
   246 H246      10.071998    19.301374    16.271002 H    1 RES 0.0000
   247 H247       7.041626    16.271002    16.271002 H    1 RES 0.0000
   248 H248       6.129874    -3.099502    16.271002 H    1 RES 0.0000
   249 H249       6.129874    23.243498    16.271002 H    1 RES 0.0000
   250 H250       7.041626    10.071998    10.071998 H    1 RES 0.0000
   251 H251       6.129874     3.099502    10.071998 H    1 RES 0.0000
   252 H252       6.129874    29.442502    10.071998 H    1 RES 0.0000
   253 H253       3.099502     6.129874    16.271002 H    1 RES 0.0000
   254 H254      29.442502     6.129874    16.271002 H    1 RES 0.0000
   255 H255      10.071998     7.041626    16.271002 H    1 RES 0.0000
   256 H256      10.071998    19.301374    10.071998 H    1 RES 0.0000
   257 H257       3.099502    20.213126    10.071998 H    1 RES 0.0000
   258 H258      29.442502    20.213126    10.071998 H    1 RES 0.0000
   259 H259       3.099502    -3.099502     7.041626 H    1 RES 0.0000
   260 H260       3.099502    23.243498     7.041626 H    1 RES 0.0000
   261 H261      29.442502    -3.099502     7.041626 H    1 RES 0.0000
   262 H262      29.442502    23.243498     7.041626 H    1 RES 0.0000
   263 H263       3.099502     3.099502    19.301374 H    1 RES 0.0000
   264 H264       3.099502    29.442502    19.301374 H    1 RES 0.0000
   265 H265      29.442502     3.099502    19.301374 H    1 RES 0.0000
   266 H266      29.442502    29.442502    19.301374 H    1 RES 0.0000
   267 H267      10.071998    16.271002     7.041626 H    1 RES 0.0000
   268 H268      10.071998    10.071998    19.301374 H    1 RES 0.0000
   269 H269       3.099502     7.041626     3.099502 H    1 RES 0.0000
   270 H270       3.099502     7.041626    29.442502 H    1 RES 0.0000
   271 H271      29.442502     7.041626     3.099502 H    1 RES 0.0000
   272 H272      29.442502     7.041626    29.442502 H    1 RES 0.0000
   273 H273       3.099502    19.301374    -3.099502 H    1 RES 0.0000
   274 H274       3.099502    19.301374    23.243498 H    1 RES 0.0000
   275 H275      29.442502    19.301374    -3.099502 H    1 RES 0.0000
   276 H276      29.442502    19.301374    23.243498 H    1 RES 0.0000
   277 H277      10.071998    20.213126    -3.099502 H    1 RES 0.0000
   278 H278      10.071998    20.213126    23.243498 H    1 RES 0.0000
   279 H279      10.071998     6.129874     3.099502 H    1 RES 0.0000
   280 H280      10.071998     6.129874    29.442502 H    1 RES 0.0000
   281 H281       7.041626     3.099502     3.099502 H    1 RES 0.0000
   282 H282       7.041626     3.099502    29.442502 H    1 RES 0.0000
   283 H283       7.041626    29.442502     3.099502 H    1 RES 0.0000
   284 H284       7.041626    29.442502    29.442502 H    1 RES 0.0000
   285 H285       6.129874    10.071998     3.099502 H    1 RES 0.0000
   286 H286       6.129874    10.071998    29.442502 H    1 RES 0.0000
   287 H287       7.041626    -3.099502    -3.099502 H    1 RES 0.0000
   288 H288       7.041626    -3.099502    23.243498 H    1 RES 0.0000
   289 H289       7.041626    23.243498    -3.099502 H    1 RES 0.0000
   290 H290       7.041626    23.243498    23.243498 H    1 RES 0.0000
   291 H291       6.129874    16.271002    -3.099502 H    1 RES 0.0000
   292 H292       6.129874    16.271002    23.243498 H    1 RES 0.0000
   293 H293       3.099502    19.301374     3.099502 H    1 RES 0.0000
   294 H294       3.099502    19.301374    29.442502 H    1 RES 0.0000
   295 H295      29.442502    19.301374     3.099502 H    1 RES 0.0000
   296 H296      29.442502    19.301374    29.442502 H    1 RES 0.0000
   297 H297      10.071998    20.213126     3.099502 H    1 RES 0.0000
   298 H298      10.071998    20.213126    29.442502 H    1 RES 0.0000
   299 H299      10.071998     6.129874    -3.099502 H    1 RES 0.0000
   300 H300      10.071998     6.129874    23.243498 H    1 RES 0.0000
   301 H301       3.099502     7.041626    -3.099502 H    1 RES 0.0000
   302 H302       3.099502     7.041626    23.243498 H    1 RES 0.0000
   303 H303      29.442502     7.041626    -3.099502 H    1 RES 0.0000
   304 H304      29.442502     7.041626    23.243498 H    1 RES 0.0000
   305 H305       3.099502    10.071998    20.213126 H    1 RES 0.0000
   306 H306      29.442502    10.071998    20.213126 H    1 RES 0.0000
   307 H307       3.099502    16.271002     6.129874 H    1 RES 0.0000
   308 H308      29.442502    16.271002     6.129874 H    1 RES 0.0000
   309 H309      10.071998     3.099502    20.213126 H    1 RES 0.0000
   310 H310      10.071998    29.442502    20.213126 H    1 RES 0.0000
   311 H311      10.071998    -3.099502     6.129874 H    1 RES 0.0000
   312 H312      10.071998    23.243498     6.129874 H    1 RES 0.0000
   313 H313      15.649291     2.477791    18.985051 H    1 RES 0.0000
   314 H314      15.649291    28.820791    18.985051 H    1 RES 0.0000
   315 H315      15.517832     3.802972    20.164040 H    1 RES 0.0000
   316 H316      15.517832    30.145972    20.164040 H    1 RES 0.0000
   317 H317      17.125549     3.218658    19.645944 H    1 RES 0.0000
   318 H318      17.125549    29.561658    19.645944 H    1 RES 0.0000
   319 H319      -2.477791    15.649291     7.357949 H    1 RES 0.0000
   320 H320      23.865209    15.649291     7.357949 H    1 RES 0.0000
   321 H321      -2.346332    16.974472     6.178960 H    1 RES 0.0000
   322 H322      23.996668    16.974472     6.178960 H    1 RES 0.0000
   323 H323      -3.954049    16.390158     6.697056 H    1 RES 0.0000
   324 H324      22.388951    16.390158     6.697056 H    1 RES 0.0000
   325 H325      -2.477791    10.693709    18.985051 H    1 RES 0.0000
   326 H326      23.865209    10.693709    18.985051 H    1 RES 0.0000
   327 H327      -2.346332     9.368528    20.164040 H    1 RES 0.0000
   328 H328      23.996668     9.368528    20.164040 H    1 RES 0.0000
   329 H329      -3.954049     9.952842    19.645944 H    1 RES 0.0000
   330 H330      22.388951     9.952842    19.645944 H    1 RES 0.0000
   331 H331      15.649291    -2.477791     7.357949 H    1 RES 0.0000
   332 H332      15.649291    23.865209     7.357949 H    1 RES 0.0000
   333 H333      15.517832    -3.802972     6.178960 H    1 RES 0.0000
   334 H334      15.517832    22.540028     6.178960 H    1 RES 0.0000
   335 H335      17.125549    -3.218658     6.697056 H    1 RES 0.0000
   336 H336      17.125549    23.124342     6.697056 H    1 RES 0.0000
   337 H337      18.985051    10.693709     2.477791 H    1 RES 0.0000
   338 H338      18.985051    10.693709    28.820791 H    1 RES 0.0000
   339 H339      20.164040     9.368528     2.346332 H    1 RES 0.0000
   340 H340      20.164040     9.368528    28.689332 H    1 RES 0.0000
   341 H341      19.645944     9.952842     3.954049 H    1 RES 0.0000
   342 H342      19.645944     9.952842    30.297049 H    1 RES 0.0000
   343 H343      20.529449    -2.477791    -2.477791 H    1 RES 0.0000
   344 H344      20.529449    -2.477791    23.865209 H    1 RES 0.0000
   345 H345      20.529449    23.865209    -2.477791 H    1 RES 0.0000
   346 H346      20.529449    23.865209    23.865209 H    1 RES 0.0000
   347 H347      19.350460    -3.802972    -2.346332 H    1 RES 0.0000
   348 H348      19.350460    -3.802972    23.996668 H    1 RES 0.0000
   349 H349      19.350460    22.540028    -2.346332 H    1 RES 0.0000
   350 H350      19.350460    22.540028    23.996668 H    1 RES 0.0000
   351 H351      19.868556    -3.218658    -3.954049 H    1 RES 0.0000
   352 H352      19.868556    -3.218658    22.388951 H    1 RES 0.0000
   353 H353      19.868556    23.124342    -3.954049 H    1 RES 0.0000
   354 H354      19.868556    23.124342    22.388951 H    1 RES 0.0000
   355 H355      18.985051    15.649291    -2.477791 H    1 RES 0.0000
   356 H356      18.985051    15.649291    23.865209 H    1 RES 0.0000
   357 H357      20.164040    16.974472    -2.346332 H    1 RES 0.0000
   358 H358      20.164040    16.974472    23.996668 H    1 RES 0.0000
   359 H359      19.645944    16.390158    -3.954049 H    1 RES 0.0000
   360 H360      19.645944    16.390158    22.388951 H    1 RES 0.0000
   361 H361      20.529449     2.477791     2.477791 H    1 RES 0.0000
   362 H362      20.529449     2.477791    28.820791 H    1 RES 0.0000
   363 H363      20.529449    28.820791     2.477791 H    1 RES 0.0000
   364 H364      20.529449    28.820791    28.820791 H    1 RES 0.0000
   365 H365      19.350460     3.802972     2.346332 H    1 RES 0.0000
   366 H366      19.350460     3.802972    28.689332 H    1 RES 0.0000
   367 H367      19.350460    30.145972     2.346332 H    1 RES 0.0000
   368 H368      19.350460    30.145972    28.689332 H    1 RES 0.0000
   369 H369      19.868556     3.218658     3.954049 H    1 RES 0.0000
   370 H370      19.868556     3.218658    30.297049 H    1 RES 0.0000
   371 H371      19.868556    29.561658     3.954049 H    1 RES 0.0000
   372 H372      19.868556    29.561658    30.297049 H    1 RES 0.0000
   373 H373      15.649291    15.649291     5.813551 H    1 RES 0.0000
   374 H374      15.517832    16.974472     6.992540 H    1 RES 0.0000
   375 H375      17.125549    16.390158     6.474444 H    1 RES 0.0000
   376 H376      -2.477791     2.477791    20.529449 H    1 RES 0.0000
   377 H377      -2.477791    28.820791    20.529449 H    1 RES 0.0000
   378 H378      23.865209     2.477791    20.529449 H    1 RES 0.0000
   379 H379      23.865209    28.820791    20.529449 H    1 RES 0.0000
   380 H380      -2.346332     3.802972    19.350460 H    1 RES 0.0000
   381 H381      -2.346332    30.145972    19.350460 H    1 RES 0.0000
   382 H382      23.996668     3.802972    19.350460 H    1 RES 0.0000
   383 H383      23.996668    30.145972    19.350460 H    1 RES 0.0000
   384 H384      -3.954049     3.218658    19.868556 H    1 RES 0.0000
   385 H385      -3.954049    29.561658    19.868556 H    1 RES 0.0000
   386 H386      22.388951     3.218658    19.868556 H    1 RES 0.0000
   387 H387      22.388951    29.561658    19.868556 H    1 RES 0.0000
   388 H388      -2.477791    -2.477791     5.813551 H    1 RES 0.0000
   389 H389      -2.477791    23.865209     5.813551 H    1 RES 0.0000
   390 H390      23.865209    -2.477791     5.813551 H    1 RES 0.0000
   391 H391      23.865209    23.865209     5.813551 H    1 RES 0.0000
   392 H392      -2.346332    -3.802972     6.992540 H    1 RES 0.0000
   393 H393      -2.346332    22.540028     6.992540 H    1 RES 0.0000
   394 H394      23.996668    -3.802972     6.992540 H    1 RES 0.0000
   395 H395      23.996668    22.540028     6.992540 H    1 RES 0.0000
   396 H396      -3.954049    -3.218658     6.474444 H    1 RES 0.0000
   397 H397      -3.954049    23.124342     6.474444 H    1 RES 0.0000
   398 H398      22.388951    -3.218658     6.474444 H    1 RES 0.0000
   399 H399      22.388951    23.124342     6.474444 H    1 RES 0.0000
   400 H400      15.649291    10.693709    20.529449 H    1 RES 0.0000
   401 H401      15.517832     9.368528    19.350460 H    1 RES 0.0000
   402 H402      17.125549     9.952842    19.868556 H    1 RES 0.0000
   403 H403      18.985051    -2.477791    15.649291 H    1 RES 0.0000
   404 H404      18.985051    23.865209    15.649291 H    1 RES 0.0000
   405 H405      20.164040    -3.802972    15.517832 H    1 RES 0.0000
   406 H406      20.164040    22.540028    15.517832 H    1 RES 0.0000
   407 H407      19.645944    -3.218658    17.125549 H    1 RES 0.0000
   408 H408      19.645944    23.124342    17.125549 H    1 RES 0.0000
   409 H409      20.529449    10.693709    10.693709 H    1 RES 0.0000
   410 H410      19.350460     9.368528    10.825168 H    1 RES 0.0000
   411 H411      19.868556     9.952842     9.217451 H    1 RES 0.0000
   412 H412      18.985051     2.477791    10.693709 H    1 RES 0.0000
   413 H413      18.985051    28.820791    10.693709 H    1 RES 0.0000
   414 H414      20.164040     3.802972    10.825168 H    1 RES 0.0000
   415 H415      20.164040    30.145972    10.825168 H    1 RES 0.0000
   416 H416      19.645944     3.218658     9.217451 H    1 RES 0.0000
   417 H417      19.645944    29.561658     9.217451 H    1 RES 0.0000
   418 H418      20.529449    15.649291    15.649291 H    1 RES 0.0000
   419 H419      19.350460    16.974472    15.517832 H    1 RES 0.0000
   420 H420      19.868556    16.390158    17.125549 H    1 RES 0.0000
   421 H421       2.477791     2.477791     5.813551 H    1 RES 0.0000
   422 H422       2.477791    28.820791     5.813551 H    1 RES 0.0000
   423 H423      28.820791     2.477791     5.813551 H    1 RES 0.0000
   424 H424      28.820791    28.820791     5.813551 H    1 RES 0.0000
   425 H425       2.346332     3.802972     6.992540 H    1 RES 0.0000
   426 H426       2.346332    30.145972     6.992540 H    1 RES 0.0000
   427 H427      28.689332     3.802972     6.992540 H    1 RES 0.0000
   428 H428      28.689332    30.145972     6.992540 H    1 RES 0.0000
   429 H429       3.954049     3.218658     6.474444 H    1 RES 0.0000
   430 H430       3.954049    29.561658     6.474444 H    1 RES 0.0000
   431 H431      30.297049     3.218658     6.474444 H    1 RES 0.0000
   432 H432      30.297049    29.561658     6.474444 H    1 RES 0.0000
   433 H433      10.693709    15.649291    20.529449 H    1 RES 0.0000
   434 H434      10.825168    16.974472    19.350460 H    1 RES 0.0000
   435 H435       9.217451    16.390158    19.868556 H    1 RES 0.0000
   436 H436      10.693709    10.693709     5.813551 H    1 RES 0.0000
   437 H437      10.825168     9.368528     6.992540 H    1 RES 0.0000
   438 H438       9.217451     9.952842     6.474444 H    1 RES 0.0000
   439 H439       2.477791    -2.477791    20.529449 H    1 RES 0.0000
   440 H440       2.477791    23.865209    20.529449 H    1 RES 0.0000
   441 H441      28.820791    -2.477791    20.529449 H    1 RES 0.0000
   442 H442      28.820791    23.865209    20.529449 H    1 RES 0.0000
   443 H443       2.346332    -3.802972    19.350460 H    1 RES 0.0000
   444 H444       2.346332    22.540028    19.350460 H    1 RES 0.0000
   445 H445      28.689332    -3.802972    19.350460 H    1 RES 0.0000
   446 H446      28.689332    22.540028    19.350460 H    1 RES 0.0000
   447 H447       3.954049    -3.218658    19.868556 H    1 RES 0.0000
   448 H448       3.954049    23.124342    19.868556 H    1 RES 0.0000
   449 H449      30.297049    -3.218658    19.868556 H    1 RES 0.0000
   450 H450      30.297049    23.124342    19.868556 H    1 RES 0.0000
   451 H451       5.813551    10.693709    15.649291 H    1 RES 0.0000
   452 H452       6.992540     9.368528    15.517832 H    1 RES 0.0000
   453 H453       6.474444     9.952842    17.125549 H    1 RES 0.0000
   454 H454       7.357949    -2.477791    10.693709 H    1 RES 0.0000
   455 H455       7.357949    23.865209    10.693709 H    1 RES 0.0000
   456 H456       6.178960    -3.802972    10.825168 H    1 RES 0.0000
   457 H457       6.178960    22.540028    10.825168 H    1 RES 0.0000
   458 H458       6.697056    -3.218658     9.217451 H    1 RES 0.0000
   459 H459       6.697056    23.124342     9.217451 H    1 RES 0.0000
   460 H460       5.813551    15.649291    10.693709 H    1 RES 0.0000
   461 H461       6.992540    16.974472    10.825168 H    1 RES 0.0000
   462 H462       6.474444    16.390158     9.217451 H    1 RES 0.0000
   463 H463       7.357949     2.477791    15.649291 H    1 RES 0.0000
   464 H464       7.357949    28.820791    15.649291 H    1 RES 0.0000
   465 H465       6.178960     3.802972    15.517832 H    1 RES 0.0000
   466 H466       6.178960    30.145972    15.517832 H    1 RES 0.0000
   467 H467       6.697056     3.218658    17.125549 H    1 RES 0.0000
   468 H468       6.697056    29.561658    17.125549 H    1 RES 0.0000
   469 H469       2.477791    15.649291    18.985051 H    1 RES 0.0000
   470 H470      28.820791    15.649291    18.985051 H    1 RES 0.0000
   471 H471       2.346332    16.974472    20.164040 H    1 RES 0.0000
   472 H472      28.689332    16.974472    20.164040 H    1 RES 0.0000
   473 H473       3.954049    16.390158    19.645944 H    1 RES 0.0000
   474 H474      30.297049    16.390158    19.645944 H    1 RES 0.0000
   475 H475      10.693709     2.477791     7.357949 H    1 RES 0.0000
   476 H476      10.693709    28.820791     7.357949 H    1 RES 0.0000
   477 H477       9.368528     2.346332     6.178960 H    1 RES 0.0000
   478 H478       9.368528    28.689332     6.178960 H    1 RES 0.0000
   479 H479      10.976245     2.930646     5.660864 H    1 RES 0.0000
   480 H480      10.976245     2.930646    32.003864 H    1 RES 0.0000
   481 H481      10.976245    29.273646     5.660864 H    1 RES 0.0000
   482 H482      10.976245    29.273646    32.003864 H    1 RES 0.0000
   483 H483      10.693709    -2.477791    18.985051 H    1 RES 0.0000
   484 H484      10.693709    23.865209    18.985051 H    1 RES 0.0000
   485 H485      10.825168    -3.802972    20.164040 H    1 RES 0.0000
   486 H486      10.825168    22.540028    20.164040 H    1 RES 0.0000
   487 H487       9.217451    -3.218658    19.645944 H    1 RES 0.0000
   488 H488       9.217451    23.124342    19.645944 H    1 RES 0.0000
   489 H489       2.477791    10.693709     7.357949 H    1 RES 0.0000
   490 H490      28.820791    10.693709     7.357949 H    1 RES 0.0000
   491 H491       2.346332     9.368528     6.178960 H    1 RES 0.0000
   492 H492      28.689332     9.368528     6.178960 H    1 RES 0.0000
   493 H493       3.954049     9.952842     6.697056 H    1 RES 0.0000
   494 H494      30.297049     9.952842     6.697056 H    1 RES 0.0000
   495 H495       5.813551    -2.477791     2.477791 H    1 RES 0.0000
   496 H496       5.813551    -2.477791    28.820791 H    1 RES 0.0000
   497 H497       5.813551    23.865209     2.477791 H    1 RES 0.0000
   498 H498       5.813551    23.865209    28.820791 H    1 RES 0.0000
   499 H499       6.992540    -3.802972     2.346332 H    1 RES 0.0000
   500 H500       6.992540    -3.802972    28.689332 H    1 RES 0.0000
   501 H501       6.992540    22.540028     2.346332 H    1 RES 0.0000
   502 H502       6.992540    22.540028    28.689332 H    1 RES 0.0000
   503 H503       6.474444    -3.218658     3.954049 H    1 RES 0.0000
   504 H504       6.474444    -3.218658    30.297049 H    1 RES 0.0000
   505 H505       6.474444    23.124342     3.954049 H    1 RES 0.0000
   506 H506       6.474444    23.124342    30.297049 H    1 RES 0.0000
   507 H507       7.357949    10.693709    -2.477791 H    1 RES 0.0000
   508 H508       7.357949    10.693709    23.865209 H    1 RES 0.0000
   509 H509       6.178960     9.368528    -2.346332 H    1 RES 0.0000
   510 H510       6.178960     9.368528    23.996668 H    1 RES 0.0000
   511 H511       6.697056     9.952842    -3.954049 H    1 RES 0.0000
   512 H512       6.697056     9.952842    22.388951 H    1 RES 0.0000
   513 H513       5.813551     2.477791    -2.477791 H    1 RES 0.0000
   514 H514       5.813551     2.477791    23.865209 H    1 RES 0.0000
   515 H515       5.813551    28.820791    -2.477791 H    1 RES 0.0000
   516 H516       5.813551    28.820791    23.865209 H    1 RES 0.0000
   517 H517       6.992540     3.802972    -2.346332 H    1 RES 0.0000
   518 H518       6.992540     3.802972    23.996668 H    1 RES 0.0000
   519 H519       6.992540    30.145972    -2.346332 H    1 RES 0.0000
   520 H520       6.992540    30.145972    23.996668 H    1 RES 0.0000
   521 H521       6.474444     3.218658    -3.954049 H    1 RES 0.0000
   522 H522       6.474444     3.218658    22.388951 H    1 RES 0.0000
   523 H523       6.474444    29.561658    -3.954049 H    1 RES 0.0000
   524 H524       6.474444    29.561658    22.388951 H    1 RES 0.0000
   525 H525       7.357949    15.649291     2.477791 H    1 RES 0.0000
   526 H526       7.357949    15.649291    28.820791 H    1 RES 0.0000
   527 H527       6.178960    16.974472     2.346332 H    1 RES 0.0000
   528 H528       6.178960    16.974472    28.689332 H    1 RES 0.0000
   529 H529       6.697056    16.390158     3.954049 H    1 RES 0.0000
   530 H530       6.697056    16.390158    30.297049 H    1 RES 0.0000
   531 C531      18.522283     1.813524    -5.350783 C    1 RES 0.0000
   532 C532      18.522283     1.813524    20.992217 C    1 RES 0.0000
   533 C533      18.522283    28.156524    -5.350783 C    1 RES 0.0000
   534 C534      18.522283    28.156524    20.992217 C    1 RES 0.0000
   535 C535      -5.350783    14.985024     5.350783 C    1 RES 0.0000
   536 C536      -5.350783    14.985024    31.693783 C    1 RES 0.0000
   537 C537      20.992217    14.985024     5.350783 C    1 RES 0.0000
   538 C538      20.992217    14.985024    31.693783 C    1 RES 0.0000
   539 C539      -5.350783    11.357976    -5.350783 C    1 RES 0.0000
   540 C540      -5.350783    11.357976    20.992217 C    1 RES 0.0000
   541 C541      20.992217    11.357976    -5.350783 C    1 RES 0.0000
   542 C542      20.992217    11.357976    20.992217 C    1 RES 0.0000
   543 C543      18.522283    -1.813524     5.350783 C    1 RES 0.0000
   544 C544      18.522283    -1.813524    31.693783 C    1 RES 0.0000
   545 C545      18.522283    24.529476     5.350783 C    1 RES 0.0000
   546 C546      18.522283    24.529476    31.693783 C    1 RES 0.0000
   547 C547      14.985024    -5.350783     5.350783 C    1 RES 0.0000
   548 C548      14.985024    -5.350783    31.693783 C    1 RES 0.0000
   549 C549      14.985024    20.992217     5.350783 C    1 RES 0.0000
   550 C550      14.985024    20.992217    31.693783 C    1 RES 0.0000
   551 C551      14.985024     5.350783    -5.350783 C    1 RES 0.0000
   552 C552      14.985024     5.350783    20.992217 C    1 RES 0.0000
   553 C553      14.985024    31.693783    -5.350783 C    1 RES 0.0000
   554 C554      14.985024    31.693783    20.992217 C    1 RES 0.0000
   555 C555      -1.813524     7.820717    -5.350783 C    1 RES 0.0000
   556 C556      -1.813524     7.820717    20.992217 C    1 RES 0.0000
   557 C557      24.529476     7.820717    -5.350783 C    1 RES 0.0000
   558 C558      24.529476     7.820717    20.992217 C    1 RES 0.0000
   559 C559      -1.813524    18.522283     5.350783 C    1 RES 0.0000
   560 C560      -1.813524    18.522283    31.693783 C    1 RES 0.0000
   561 C561      24.529476    18.522283     5.350783 C    1 RES 0.0000
   562 C562      24.529476    18.522283    31.693783 C    1 RES 0.0000
   563 C563      -5.350783    18.522283     1.813524 C    1 RES 0.0000
   564 C564      -5.350783    18.522283    28.156524 C    1 RES 0.0000
   565 C565      20.992217    18.522283     1.813524 C    1 RES 0.0000
   566 C566      20.992217    18.522283    28.156524 C    1 RES 0.0000
   567 C567      18.522283    -5.350783     1.813524 C    1 RES 0.0000
   568 C568      18.522283    -5.350783    28.156524 C    1 RES 0.0000
   569 C569      18.522283    20.992217     1.813524 C    1 RES 0.0000
   570 C570      18.522283    20.992217    28.156524 C    1 RES 0.0000
   571 C571      -5.350783     7.820717    -1.813524 C    1 RES 0.0000
   572 C572      -5.350783     7.820717    24.529476 C    1 RES 0.0000
   573 C573      20.992217     7.820717    -1.813524 C    1 RES 0.0000
   574 C574      20.992217     7.820717    24.529476 C    1 RES 0.0000
   575 C575      18.522283     5.350783    -1.813524 C    1 RES 0.0000
   576 C576      18.522283     5.350783    24.529476 C    1 RES 0.0000
   577 C577      18.522283    31.693783    -1.813524 C    1 RES 0.0000
   578 C578      18.522283    31.693783    24.529476 C    1 RES 0.0000
   579 C579      -5.350783    11.357976     5.350783 C    1 RES 0.0000
   580 C580      -5.350783    11.357976    31.693783 C    1 RES 0.0000
   581 C581      20.992217    11.357976     5.350783 C    1 RES 0.0000
   582 C582      20.992217    11.357976    31.693783 C    1 RES 0.0000
   583 C583      18.522283    -1.813524    -5.350783 C    1 RES 0.0000
   584 C584      18.522283    -1.813524    20.992217 C    1 RES 0.0000
   585 C585      18.522283    24.529476    -5.350783 C    1 RES 0.0000
   586 C586      18.522283    24.529476    20.992217 C    1 RES 0.0000
   587 C587      -5.350783    14.985024    -5.350783 C    1 RES 0.0000
   588 C588      -5.350783    14.985024    20.992217 C    1 RES 0.0000
   589 C589      20.992217    14.985024    -5.350783 C    1 RES 0.0000
   590 C590      20.992217    14.985024    20.992217 C    1 RES 0.0000
   591 C591      18.522283     1.813524     5.350783 C    1 RES 0.0000
   592 C592      18.522283     1.813524    31.693783 C    1 RES 0.0000
   593 C593      18.522283    28.156524     5.350783 C    1 RES 0.0000
   594 C594      18.522283    28.156524    31.693783 C    1 RES 0.0000
   595 C595      18.522283     5.350783     1.813524 C    1 RES 0.0000
   596 C596      18.522283     5.350783    28.156524 C    1 RES 0.0000
   597 C597      18.522283    31.693783     1.813524 C    1 RES 0.0000
   598 C598      18.522283    31.693783    28.156524 C    1 RES 0.0000
   599 C599      -5.350783     7.820717     1.813524 C    1 RES 0.0000
   600 C600      -5.350783     7.820717    28.156524 C    1 RES 0.0000
   601 C601      20.992217     7.820717     1.813524 C    1 RES 0.0000
   602 C602      20.992217     7.820717    28.156524 C    1 RES 0.0000
   603 C603      -5.350783    18.522283    -1.813524 C    1 RES 0.0000
   604 C604      -5.350783    18.522283    24.529476 C    1 RES 0.0000
   605 C605      20.992217    18.522283    -1.813524 C    1 RES 0.0000
   606 C606      20.992217    18.522283    24.529476 C    1 RES 0.0000
   607 C607      18.522283    -5.350783    -1.813524 C    1 RES 0.0000
   608 C608      18.522283    -5.350783    24.529476 C    1 RES 0.0000
   609 C609      18.522283    20.992217    -1.813524 C    1 RES 0.0000
   610 C610      18.522283    20.992217    24.529476 C    1 RES 0.0000
   611 C611      14.985024    -5.350783    -5.350783 C    1 RES 0.0000
   612 C612      14.985024    -5.350783    20.992217 C    1 RES 0.0000
   613 C613      14.985024    20.992217    -5.350783 C    1 RES 0.0000
   614 C614      14.985024    20.992217    20.992217 C    1 RES 0.0000
   615 C615      14.985024     5.350783     5.350783 C    1 RES 0.0000
   616 C616      14.985024     5.350783    31.693783 C    1 RES 0.0000
   617 C617      14.985024    31.693783     5.350783 C    1 RES 0.0000
   618 C618      14.985024    31.693783    31.693783 C    1 RES 0.0000
   619 C619      -1.813524    18.522283    -5.350783 C    1 RES 0.0000
   620 C620      -1.813524    18.522283    20.992217 C    1 RES 0.0000
   621 C621      24.529476    18.522283    -5.350783 C    1 RES 0.0000
   622 C622      24.529476    18.522283    20.992217 C    1 RES 0.0000
   623 C623      -1.813524     7.820717     5.350783 C    1 RES 0.0000
   624 C624      -1.813524     7.820717    31.693783 C    1 RES 0.0000
   625 C625      24.529476     7.820717     5.350783 C    1 RES 0.0000
   626 C626      24.529476     7.820717    31.693783 C    1 RES 0.0000
   627 C627      17.853451     2.983195    -4.681951 C    1 RES 0.0000
   628 C628      17.853451     2.983195    21.661049 C    1 RES 0.0000
   629 C629      17.853451    29.326195    -4.681951 C    1 RES 0.0000
   630 C630      17.853451    29.326195    21.661049 C    1 RES 0.0000
   631 C631      -4.681951    16.154695     4.681951 C    1 RES 0.0000
   632 C632      -4.681951    16.154695    31.024951 C    1 RES 0.0000
   633 C633      21.661049    16.154695     4.681951 C    1 RES 0.0000
   634 C634      21.661049    16.154695    31.024951 C    1 RES 0.0000
   635 C635      -4.681951    10.188305    -4.681951 C    1 RES 0.0000
   636 C636      -4.681951    10.188305    21.661049 C    1 RES 0.0000
   637 C637      21.661049    10.188305    -4.681951 C    1 RES 0.0000
   638 C638      21.661049    10.188305    21.661049 C    1 RES 0.0000
   639 C639      17.853451    -2.983195     4.681951 C    1 RES 0.0000
   640 C640      17.853451    -2.983195    31.024951 C    1 RES 0.0000
   641 C641      17.853451    23.359805     4.681951 C    1 RES 0.0000
   642 C642      17.853451    23.359805    31.024951 C    1 RES 0.0000
   643 C643      16.154695    -4.681951     4.681951 C    1 RES 0.0000
   644 C644      16.154695    -4.681951    31.024951 C    1 RES 0.0000
   645 C645      16.154695    21.661049     4.681951 C    1 RES 0.0000
   646 C646      16.154695    21.661049    31.024951 C    1 RES 0.0000
   647 C647      16.154695     4.681951    -4.681951 C    1 RES 0.0000
   648 C648      16.154695     4.681951    21.661049 C    1 RES 0.0000
   649 C649      16.154695    31.024951    -4.681951 C    1 RES 0.0000
   650 C650      16.154695    31.024951    21.661049 C    1 RES 0.0000
   651 C651      -2.983195     8.489549    -4.681951 C    1 RES 0.0000
   652 C652      -2.983195     8.489549    21.661049 C    1 RES 0.0000
   653 C653      23.359805     8.489549    -4.681951 C    1 RES 0.0000
   654 C654      23.359805     8.489549    21.661049 C    1 RES 0.0000
   655 C655      -2.983195    17.853451     4.681951 C    1 RES 0.0000
   656 C656      -2.983195    17.853451    31.024951 C    1 RES 0.0000
   657 C657      23.359805    17.853451     4.681951 C    1 RES 0.0000
   658 C658      23.359805    17.853451    31.024951 C    1 RES 0.0000
   659 C659      -4.681951    17.853451     2.983195 C    1 RES 0.0000
   660 C660      -4.681951    17.853451    29.326195 C    1 RES 0.0000
   661 C661      21.661049    17.853451     2.983195 C    1 RES 0.0000
   662 C662      21.661049    17.853451    29.326195 C    1 RES 0.0000
   663 C663      17.853451    -4.681951     2.983195 C    1 RES 0.0000
   664 C664      17.853451    -4.681951    29.326195 C    1 RES 0.0000
   665 C665      17.853451    21.661049     2.983195 C    1 RES 0.0000
   666 C666      17.853451    21.661049    29.326195 C    1 RES 0.0000
   667 C667      -4.681951     8.489549    -2.983195 C    1 RES 0.0000
   668 C668      -4.681951     8.489549    23.359805 C    1 RES 0.0000
   669 C669      21.661049     8.489549    -2.983195 C    1 RES 0.0000
   670 C670      21.661049     8.489549    23.359805 C    1 RES 0.0000
   671 C671      17.853451     4.681951    -2.983195 C    1 RES 0.0000
   672 C672      17.853451     4.681951    23.359805 C    1 RES 0.0000
   673 C673      17.853451    31.024951    -2.983195 C    1 RES 0.0000
   674 C674      17.853451    31.024951    23.359805 C    1 RES 0.0000
   675 C675      -4.681951    10.188305     4.681951 C    1 RES 0.0000
   676 C676      -4.681951    10.188305    31.024951 C    1 RES 0.0000
   677 C677      21.661049    10.188305     4.681951 C    1 RES 0.0000
   678 C678      21.661049    10.188305    31.024951 C    1 RES 0.0000
   679 C679      17.853451    -2.983195    -4.681951 C    1 RES 0.0000
   680 C680      17.853451    -2.983195    21.661049 C    1 RES 0.0000
   681 C681      17.853451    23.359805    -4.681951 C    1 RES 0.0000
   682 C682      17.853451    23.359805    21.661049 C    1 RES 0.0000
   683 C683      -4.681951    16.154695    -4.681951 C    1 RES 0.0000
   684 C684      -4.681951    16.154695    21.661049 C    1 RES 0.0000
   685 C685      21.661049    16.154695    -4.681951 C    1 RES 0.0000
   686 C686      21.661049    16.154695    21.661049 C    1 RES 0.0000
   687 C687      17.853451     2.983195     4.681951 C    1 RES 0.0000
   688 C688      17.853451     2.983195    31.024951 C    1 RES 0.0000
   689 C689      17.853451    29.326195     4.681951 C    1 RES 0.0000
   690 C690      17.853451    29.326195    31.024951 C    1 RES 0.0000
   691 C691      17.853451     4.681951     2.983195 C    1 RES 0.0000
   692 C692      17.853451     4.681951    29.326195 C    1 RES 0.0000
   693 C693      17.853451    31.024951     2.983195 C    1 RES 0.0000
   694 C694      17.853451    31.024951    29.326195 C    1 RES 0.0000
   695 C695      -4.681951     8.489549     2.983195 C    1 RES 0.0000
   696 C696      -4.681951     8.489549    29.326195 C    1 RES 0.0000
   697 C697      21.661049     8.489549     2.983195 C    1 RES 0.0000
   698 C698      21.661049     8.489549    29.326195 C    1 RES 0.0000
   699 C699      -4.681951    17.853451    -2.983195 C    1 RES 0.0000
   700 C700      -4.681951    17.853451    23.359805 C    1 RES 0.0000
   701 C701      21.661049    17.853451    -2.983195 C    1 RES 0.0000
   702 C702      21.661049    17.853451    23.359805 C    1 RES 0.0000
   703 C703      17.853451    -4.681951    -2.983195 C    1 RES 0.0000
   704 C704      17.853451    -4.681951    23.359805 C    1 RES 0.0000
   705 C705      17.853451    21.661049    -2.983195 C    1 RES 0.0000
   706 C706      17.853451    21.661049    23.359805 C    1 RES 0.0000
   707 C707      16.154695    -4.681951    -4.681951 C    1 RES 0.0000
   708 C708      16.154695    -4.681951    21.661049 C    1 RES 0.0000
   709 C709      16.154695    21.661049    -4.681951 C    1 RES 0.0000
   710 C710      16.154695    21.661049    21.661049 C    1 RES 0.0000
   711 C711      16.154695     4.681951     4.681951 C    1 RES 0.0000
   712 C712      16.154695     4.681951    31.024951 C    1 RES 0.0000
   713 C713      16.154695    31.024951     4.681951 C    1 RES 0.0000
   714 C714      16.154695    31.024951    31.024951 C    1 RES 0.0000
   715 C715      -2.983195    17.853451    -4.681951 C    1 RES 0.0000
   716 C716      -2.983195    17.853451    21.661049 C    1 RES 0.0000
   717 C717      23.359805    17.853451    -4.681951 C    1 RES 0.0000
   718 C718      23.359805    17.853451    21.661049 C    1 RES 0.0000
   719 C719      -2.983195     8.489549     4.681951 C    1 RES 0.0000
   720 C720      -2.983195     8.489549    31.024951 C    1 RES 0.0000
   721 C721      23.359805     8.489549     4.681951 C    1 RES 0.0000
   722 C722      23.359805     8.489549    31.024951 C    1 RES 0.0000
   723 C723      16.715408     3.543908    -5.252031 C    1 RES 0.0000
   724 C724      16.715408     3.543908    21.090969 C    1 RES 0.0000
   725 C725      16.715408    29.886908    -5.252031 C    1 RES 0.0000
   726 C726      16.715408    29.886908    21.090969 C    1 RES 0.0000
   727 C727      -3.543908    16.715408     5.252031 C    1 RES 0.0000
   728 C728      -3.543908    16.715408    31.595031 C    1 RES 0.0000
   729 C729      22.799092    16.715408     5.252031 C    1 RES 0.0000
   730 C730      22.799092    16.715408    31.595031 C    1 RES 0.0000
   731 C731      -3.543908     9.627592    -5.252031 C    1 RES 0.0000
   732 C732      -3.543908     9.627592    21.090969 C    1 RES 0.0000
   733 C733      22.799092     9.627592    -5.252031 C    1 RES 0.0000
   734 C734      22.799092     9.627592    21.090969 C    1 RES 0.0000
   735 C735      16.715408    -3.543908     5.252031 C    1 RES 0.0000
   736 C736      16.715408    -3.543908    31.595031 C    1 RES 0.0000
   737 C737      16.715408    22.799092     5.252031 C    1 RES 0.0000
   738 C738      16.715408    22.799092    31.595031 C    1 RES 0.0000
   739 C739      16.715408    -5.252031     3.543908 C    1 RES 0.0000
   740 C740      16.715408    -5.252031    29.886908 C    1 RES 0.0000
   741 C741      16.715408    21.090969     3.543908 C    1 RES 0.0000
   742 C742      16.715408    21.090969    29.886908 C    1 RES 0.0000
   743 C743      16.715408     5.252031    -3.543908 C    1 RES 0.0000
   744 C744      16.715408     5.252031    22.799092 C    1 RES 0.0000
   745 C745      16.715408    31.595031    -3.543908 C    1 RES 0.0000
   746 C746      16.715408    31.595031    22.799092 C    1 RES 0.0000
   747 C747      -3.543908     7.919469    -3.543908 C    1 RES 0.0000
   748 C748      -3.543908     7.919469    22.799092 C    1 RES 0.0000
   749 C749      22.799092     7.919469    -3.543908 C    1 RES 0.0000
   750 C750      22.799092     7.919469    22.799092 C    1 RES 0.0000
   751 C751      -3.543908    18.423531     3.543908 C    1 RES 0.0000
   752 C752      -3.543908    18.423531    29.886908 C    1 RES 0.0000
   753 C753      22.799092    18.423531     3.543908 C    1 RES 0.0000
   754 C754      22.799092    18.423531    29.886908 C    1 RES 0.0000
   755 C755      -5.252031    16.715408     3.543908 C    1 RES 0.0000
   756 C756      -5.252031    16.715408    29.886908 C    1 RES 0.0000
   757 C757      21.090969    16.715408     3.543908 C    1 RES 0.0000
   758 C758      21.090969    16.715408    29.886908 C    1 RES 0.0000
   759 C759      18.423531    -3.543908     3.543908 C    1 RES 0.0000
   760 C760      18.423531    -3.543908    29.886908 C    1 RES 0.0000
   761 C761      18.423531    22.799092     3.543908 C    1 RES 0.0000
   762 C762      18.423531    22.799092    29.886908 C    1 RES 0.0000
   763 C763      -5.252031     9.627592    -3.543908 C    1 RES 0.0000
   764 C764      -5.252031     9.627592    22.799092 C    1 RES 0.0000
   765 C765      21.090969     9.627592    -3.543908 C    1 RES 0.0000
   766 C766      21.090969     9.627592    22.799092 C    1 RES 0.0000
   767 C767      18.423531     3.543908    -3.543908 C    1 RES 0.0000
   768 C768      18.423531     3.543908    22.799092 C    1 RES 0.0000
   769 C769      18.423531    29.886908    -3.543908 C    1 RES 0.0000
   770 C770      18.423531    29.886908    22.799092 C    1 RES 0.0000
   771 C771      -5.252031     9.627592     3.543908 C    1 RES 0.0000
   772 C772      -5.252031     9.627592    29.886908 C    1 RES 0.0000
   773 C773      21.090969     9.627592     3.543908 C    1 RES 0.0000
   774 C774      21.090969     9.627592    29.886908 C    1 RES 0.0000
   775 C775      18.423531    -3.543908    -3.543908 C    1 RES 0.0000
   776 C776      18.423531    -3.543908    22.799092 C    1 RES 0.0000
   777 C777      18.423531    22.799092    -3.543908 C    1 RES 0.0000
   778 C778      18.423531    22.799092    22.799092 C    1 RES 0.0000
   779 C779      -5.252031    16.715408    -3.543908 C    1 RES 0.0000
   780 C780      -5.252031    16.715408    22.799092 C    1 RES 0.0000
   781 C781      21.090969    16.715408    -3.543908 C    1 RES 0.0000
   782 C782      21.090969    16.715408    22.799092 C    1 RES 0.0000
   783 C783      18.423531     3.543908     3.543908 C    1 RES 0.0000
   784 C784      18.423531     3.543908    29.886908 C    1 RES 0.0000
   785 C785      18.423531    29.886908     3.543908 C    1 RES 0.0000
   786 C786      18.423531    29.886908    29.886908 C    1 RES 0.0000
   787 C787      16.715408     5.252031     3.543908 C    1 RES 0.0000
   788 C788      16.715408     5.252031    29.886908 C    1 RES 0.0000
   789 C789      16.715408    31.595031     3.543908 C    1 RES 0.0000
   790 C790      16.715408    31.595031    29.886908 C    1 RES 0.0000
   791 C791      -3.543908     7.919469     3.543908 C    1 RES 0.0000
   792 C792      -3.543908     7.919469    29.886908 C    1 RES 0.0000
   793 C793      22.799092     7.919469     3.543908 C    1 RES 0.0000
   794 C794      22.799092     7.919469    29.886908 C    1 RES 0.0000
   795 C795      -3.543908    18.423531    -3.543908 C    1 RES 0.0000
   796 C796      -3.543908    18.423531    22.799092 C    1 RES 0.0000
   797 C797      22.799092    18.423531    -3.543908 C    1 RES 0.0000
   798 C798      22.799092    18.423531    22.799092 C    1 RES 0.0000
   799 C799      16.715408    -5.252031    -3.543908 C    1 RES 0.0000
   800 C800      16.715408    -5.252031    22.799092 C    1 RES 0.0000
   801 C801      16.715408    21.090969    -3.543908 C    1 RES 0.0000
   802 C802      16.715408    21.090969    22.799092 C    1 RES 0.0000
   803 C803      16.715408    -3.543908    -5.252031 C    1 RES 0.0000
   804 C804      16.715408    -3.543908    21.090969 C    1 RES 0.0000
   805 C805      16.715408    22.799092    -5.252031 C    1 RES 0.0000
   806 C806      16.715408    22.799092    21.090969 C    1 RES 0.0000
   807 C807      16.715408     3.543908     5.252031 C    1 RES 0.0000
   808 C808      16.715408     3.543908    31.595031 C    1 RES 0.0000
   809 C809      16.715408    29.886908     5.252031 C    1 RES 0.0000
   810 C810      16.715408    29.886908    31.595031 C    1 RES 0.0000
   811 C811      -3.543908    16.715408    -5.252031 C    1 RES 0.0000
   812 C812      -3.543908    16.715408    21.090969 C    1 RES 0.0000
   813 C813      22.799092    16.715408    -5.252031 C    1 RES 0.0000
   814 C814      22.799092    16.715408    21.090969 C    1 RES 0.0000
   815 C815      -3.543908     9.627592     5.252031 C    1 RES 0.0000
   816 C816      -3.543908     9.627592    31.595031 C    1 RES 0.0000
   817 C817      22.799092     9.627592     5.252031 C    1 RES 0.0000
   818 C818      22.799092     9.627592    31.595031 C    1 RES 0.0000
   819 C819      18.522283    14.985024     7.820717 C    1 RES 0.0000
   820 C820      -5.350783     1.813524    18.522283 C    1 RES 0.0000
   821 C821      -5.350783    28.156524    18.522283 C    1 RES 0.0000
   822 C822      20.992217     1.813524    18.522283 C    1 RES 0.0000
   823 C823      20.992217    28.156524    18.522283 C    1 RES 0.0000
   824 C824      -5.350783    -1.813524     7.820717 C    1 RES 0.0000
   825 C825      -5.350783    24.529476     7.820717 C    1 RES 0.0000
   826 C826      20.992217    -1.813524     7.820717 C    1 RES 0.0000
   827 C827      20.992217    24.529476     7.820717 C    1 RES 0.0000
   828 C828      18.522283    11.357976    18.522283 C    1 RES 0.0000
   829 C829      14.985024     7.820717    18.522283 C    1 RES 0.0000
   830 C830      14.985024    18.522283     7.820717 C    1 RES 0.0000
   831 C831      -1.813524    -5.350783     7.820717 C    1 RES 0.0000
   832 C832      -1.813524    20.992217     7.820717 C    1 RES 0.0000
   833 C833      24.529476    -5.350783     7.820717 C    1 RES 0.0000
   834 C834      24.529476    20.992217     7.820717 C    1 RES 0.0000
   835 C835      -1.813524     5.350783    18.522283 C    1 RES 0.0000
   836 C836      -1.813524    31.693783    18.522283 C    1 RES 0.0000
   837 C837      24.529476     5.350783    18.522283 C    1 RES 0.0000
   838 C838      24.529476    31.693783    18.522283 C    1 RES 0.0000
   839 C839      -5.350783     5.350783    14.985024 C    1 RES 0.0000
   840 C840      -5.350783    31.693783    14.985024 C    1 RES 0.0000
   841 C841      20.992217     5.350783    14.985024 C    1 RES 0.0000
   842 C842      20.992217    31.693783    14.985024 C    1 RES 0.0000
   843 C843      18.522283     7.820717    14.985024 C    1 RES 0.0000
   844 C844      -5.350783    -5.350783    11.357976 C    1 RES 0.0000
   845 C845      -5.350783    20.992217    11.357976 C    1 RES 0.0000
   846 C846      20.992217    -5.350783    11.357976 C    1 RES 0.0000
   847 C847      20.992217    20.992217    11.357976 C    1 RES 0.0000
   848 C848      18.522283    18.522283    11.357976 C    1 RES 0.0000
   849 C849      -5.350783    -1.813524    18.522283 C    1 RES 0.0000
   850 C850      -5.350783    24.529476    18.522283 C    1 RES 0.0000
   851 C851      20.992217    -1.813524    18.522283 C    1 RES 0.0000
   852 C852      20.992217    24.529476    18.522283 C    1 RES 0.0000
   853 C853      18.522283    11.357976     7.820717 C    1 RES 0.0000
   854 C854      -5.350783     1.813524     7.820717 C    1 RES 0.0000
   855 C855      -5.350783    28.156524     7.820717 C    1 RES 0.0000
   856 C856      20.992217     1.813524     7.820717 C    1 RES 0.0000
   857 C857      20.992217    28.156524     7.820717 C    1 RES 0.0000
   858 C858      18.522283    14.985024    18.522283 C    1 RES 0.0000
   859 C859      18.522283    18.522283    14.985024 C    1 RES 0.0000
   860 C860      -5.350783    -5.350783    14.985024 C    1 RES 0.0000
   861 C861      -5.350783    20.992217    14.985024 C    1 RES 0.0000
   862 C862      20.992217    -5.350783    14.985024 C    1 RES 0.0000
   863 C863      20.992217    20.992217    14.985024 C    1 RES 0.0000
   864 C864      -5.350783     5.350783    11.357976 C    1 RES 0.0000
   865 C865      -5.350783    31.693783    11.357976 C    1 RES 0.0000
   866 C866      20.992217     5.350783    11.357976 C    1 RES 0.0000
   867 C867      20.992217    31.693783    11.357976 C    1 RES 0.0000
   868 C868      18.522283     7.820717    11.357976 C    1 RES 0.0000
   869 C869      14.985024     7.820717     7.820717 C    1 RES 0.0000
   870 C870      14.985024    18.522283    18.522283 C    1 RES 0.0000
   871 C871      -1.813524     5.350783     7.820717 C    1 RES 0.0000
   872 C872      -1.813524    31.693783     7.820717 C    1 RES 0.0000
   873 C873      24.529476     5.350783     7.820717 C    1 RES 0.0000
   874 C874      24.529476    31.693783     7.820717 C    1 RES 0.0000
   875 C875      -1.813524    -5.350783    18.522283 C    1 RES 0.0000
   876 C876      -1.813524    20.992217    18.522283 C    1 RES 0.0000
   877 C877      24.529476    -5.350783    18.522283 C    1 RES 0.0000
   878 C878      24.529476    20.992217    18.522283 C    1 RES 0.0000
   879 C879      17.853451    16.154695     8.489549 C    1 RES 0.0000
   880 C880      -4.681951     2.983195    17.853451 C    1 RES 0.0000
   881 C881      -4.681951    29.326195    17.853451 C    1 RES 0.0000
   882 C882      21.661049     2.983195    17.853451 C    1 RES 0.0000
   883 C883      21.661049    29.326195    17.853451 C    1 RES 0.0000
   884 C884      -4.681951    -2.983195     8.489549 C    1 RES 0.0000
   885 C885      -4.681951    23.359805     8.489549 C    1 RES 0.0000
   886 C886      21.661049    -2.983195     8.489549 C    1 RES 0.0000
   887 C887      21.661049    23.359805     8.489549 C    1 RES 0.0000
   888 C888      17.853451    10.188305    17.853451 C    1 RES 0.0000
   889 C889      16.154695     8.489549    17.853451 C    1 RES 0.0000
   890 C890      16.154695    17.853451     8.489549 C    1 RES 0.0000
   891 C891      -2.983195    -4.681951     8.489549 C    1 RES 0.0000
   892 C892      -2.983195    21.661049     8.489549 C    1 RES 0.0000
   893 C893      23.359805    -4.681951     8.489549 C    1 RES 0.0000
   894 C894      23.359805    21.661049     8.489549 C    1 RES 0.0000
   895 C895      -2.983195     4.681951    17.853451 C    1 RES 0.0000
   896 C896      -2.983195    31.024951    17.853451 C    1 RES 0.0000
   897 C897      23.359805     4.681951    17.853451 C    1 RES 0.0000
   898 C898      23.359805    31.024951    17.853451 C    1 RES 0.0000
   899 C899      -4.681951     4.681951    16.154695 C    1 RES 0.0000
   900 C900      -4.681951    31.024951    16.154695 C    1 RES 0.0000
   901 C901      21.661049     4.681951    16.154695 C    1 RES 0.0000
   902 C902      21.661049    31.024951    16.154695 C    1 RES 0.0000
   903 C903      17.853451     8.489549    16.154695 C    1 RES 0.0000
   904 C904      -4.681951    -4.681951    10.188305 C    1 RES 0.0000
   905 C905      -4.681951    21.661049    10.188305 C    1 RES 0.0000
   906 C906      21.661049    -4.681951    10.188305 C    1 RES 0.0000
   907 C907      21.661049    21.661049    10.188305 C    1 RES 0.0000
   908 C908      17.853451    17.853451    10.188305 C    1 RES 0.0000
   909 C909      -4.681951    -2.983195    17.853451 C    1 RES 0.0000
   910 C910      -4.681951    23.359805    17.853451 C    1 RES 0.0000
   911 C911      21.661049    -2.983195    17.853451 C    1 RES 0.0000
   912 C912      21.661049    23.359805    17.853451 C    1 RES 0.0000
   913 C913      17.853451    10.188305     8.489549 C    1 RES 0.0000
   914 C914      -4.681951     2.983195     8.489549 C    1 RES 0.0000
   915 C915      -4.681951    29.326195     8.489549 C    1 RES 0.0000
   916 C916      21.661049     2.983195     8.489549 C    1 RES 0.0000
   917 C917      21.661049    29.326195     8.489549 C    1 RES 0.0000
   918 C918      17.853451    16.154695    17.853451 C    1 RES 0.0000
   919 C919      17.853451    17.853451    16.154695 C    1 RES 0.0000
   920 C920      -4.681951    -4.681951    16.154695 C    1 RES 0.0000
   921 C921      -4.681951    21.661049    16.154695 C    1 RES 0.0000
   922 C922      21.661049    -4.681951    16.154695 C    1 RES 0.0000
   923 C923      21.661049    21.661049    16.154695 C    1 RES 0.0000
   924 C924      -4.681951     4.681951    10.188305 C    1 RES 0.0000
   925 C925      -4.681951    31.024951    10.188305 C    1 RES 0.0000
   926 C926      21.661049     4.681951    10.188305 C    1 RES 0.0000
   927 C927      21.661049    31.024951    10.188305 C    1 RES 0.0000
   928 C928      17.853451     8.489549    10.188305 C    1 RES 0.0000
   929 C929      16.154695     8.489549     8.489549 C    1 RES 0.0000
   930 C930      16.154695    17.853451    17.853451 C    1 RES 0.0000
   931 C931      -2.983195     4.681951     8.489549 C    1 RES 0.0000
   932 C932      -2.983195    31.024951     8.489549 C    1 RES 0.0000
   933 C933      23.359805     4.681951     8.489549 C    1 RES 0.0000
   934 C934      23.359805    31.024951     8.489549 C    1 RES 0.0000
   935 C935      -2.983195    -4.681951    17.853451 C    1 RES 0.0000
   936 C936      -2.983195    21.661049    17.853451 C    1 RES 0.0000
   937 C937      23.359805    -4.681951    17.853451 C    1 RES 0.0000
   938 C938      23.359805    21.661049    17.853451 C    1 RES 0.0000
   939 C939      16.715408    16.715408     7.919469 C    1 RES 0.0000
   940 C940      -3.543908     3.543908    18.423531 C    1 RES 0.0000
   941 C941      -3.543908    29.886908    18.423531 C    1 RES 0.0000
   942 C942      22.799092     3.543908    18.423531 C    1 RES 0.0000
   943 C943      22.799092    29.886908    18.423531 C    1 RES 0.0000
   944 C944      -3.543908    -3.543908     7.919469 C    1 RES 0.0000
   945 C945      -3.543908    22.799092     7.919469 C    1 RES 0.0000
   946 C946      22.799092    -3.543908     7.919469 C    1 RES 0.0000
   947 C947      22.799092    22.799092     7.919469 C    1 RES 0.0000
   948 C948      16.715408     9.627592    18.423531 C    1 RES 0.0000
   949 C949      16.715408     7.919469    16.715408 C    1 RES 0.0000
   950 C950      16.715408    18.423531     9.627592 C    1 RES 0.0000
   951 C951      -3.543908    -5.252031     9.627592 C    1 RES 0.0000
   952 C952      -3.543908    21.090969     9.627592 C    1 RES 0.0000
   953 C953      22.799092    -5.252031     9.627592 C    1 RES 0.0000
   954 C954      22.799092    21.090969     9.627592 C    1 RES 0.0000
   955 C955      -3.543908     5.252031    16.715408 C    1 RES 0.0000
   956 C956      -3.543908    31.595031    16.715408 C    1 RES 0.0000
   957 C957      22.799092     5.252031    16.715408 C    1 RES 0.0000
   958 C958      22.799092    31.595031    16.715408 C    1 RES 0.0000
   959 C959      -5.252031     3.543908    16.715408 C    1 RES 0.0000
   960 C960      -5.252031    29.886908    16.715408 C    1 RES 0.0000
   961 C961      21.090969     3.543908    16.715408 C    1 RES 0.0000
   962 C962      21.090969    29.886908    16.715408 C    1 RES 0.0000
   963 C963      18.423531     9.627592    16.715408 C    1 RES 0.0000
   964 C964      -5.252031    -3.543908     9.627592 C    1 RES 0.0000
   965 C965      -5.252031    22.799092     9.627592 C    1 RES 0.0000
   966 C966      21.090969    -3.543908     9.627592 C    1 RES 0.0000
   967 C967      21.090969    22.799092     9.627592 C    1 RES 0.0000
   968 C968      18.423531    16.715408     9.627592 C    1 RES 0.0000
   969 C969      -5.252031    -3.543908    16.715408 C    1 RES 0.0000
   970 C970      -5.252031    22.799092    16.715408 C    1 RES 0.0000
   971 C971      21.090969    -3.543908    16.715408 C    1 RES 0.0000
   972 C972      21.090969    22.799092    16.715408 C    1 RES 0.0000
   973 C973      18.423531     9.627592     9.627592 C    1 RES 0.0000
   974 C974      -5.252031     3.543908     9.627592 C    1 RES 0.0000
   975 C975      -5.252031    29.886908     9.627592 C    1 RES 0.0000
   976 C976      21.090969     3.543908     9.627592 C    1 RES 0.0000
   977 C977      21.090969    29.886908     9.627592 C    1 RES 0.0000
   978 C978      18.423531    16.715408    16.715408 C    1 RES 0.0000
   979 C979      16.715408    18.423531    16.715408 C    1 RES 0.0000
   980 C980      -3.543908    -5.252031    16.715408 C    1 RES 0.0000
   981 C981      -3.543908    21.090969    16.715408 C    1 RES 0.0000
   982 C982      22.799092    -5.252031    16.715408 C    1 RES 0.0000
   983 C983      22.799092    21.090969    16.715408 C    1 RES 0.0000
   984 C984      -3.543908     5.252031     9.627592 C    1 RES 0.0000
   985 C985      -3.543908    31.595031     9.627592 C    1 RES 0.0000
   986 C986      22.799092     5.252031     9.627592 C    1 RES 0.0000
   987 C987      22.799092    31.595031     9.627592 C    1 RES 0.0000
   988 C988      16.715408     7.919469     9.627592 C    1 RES 0.0000
   989 C989      16.715408     9.627592     7.919469 C    1 RES 0.0000
   990 C990      16.715408    16.715408    18.423531 C    1 RES 0.0000
   991 C991      -3.543908     3.543908     7.919469 C    1 RES 0.0000
   992 C992      -3.543908    29.886908     7.919469 C    1 RES 0.0000
   993 C993      22.799092     3.543908     7.919469 C    1 RES 0.0000
   994 C994      22.799092    29.886908     7.919469 C    1 RES 0.0000
   995 C995      -3.543908    -3.543908    18.423531 C    1 RES 0.0000
   996 C996      -3.543908    22.799092    18.423531 C    1 RES 0.0000
   997 C997      22.799092    -3.543908    18.423531 C    1 RES 0.0000
   998 C998      22.799092    22.799092    18.423531 C    1 RES 0.0000
   999 C999       5.350783     1.813524     7.820717 C    1 RES 0.0000
  1000 C1000      5.350783    28.156524     7.820717 C    1 RES 0.0000
  1001 C1001     31.693783     1.813524     7.820717 C    1 RES 0.0000
  1002 C1002     31.693783    28.156524     7.820717 C    1 RES 0.0000
  1003 C1003      7.820717    14.985024    18.522283 C    1 RES 0.0000
  1004 C1004      7.820717    11.357976     7.820717 C    1 RES 0.0000
  1005 C1005      5.350783    -1.813524    18.522283 C    1 RES 0.0000
  1006 C1006      5.350783    24.529476    18.522283 C    1 RES 0.0000
  1007 C1007     31.693783    -1.813524    18.522283 C    1 RES 0.0000
  1008 C1008     31.693783    24.529476    18.522283 C    1 RES 0.0000
  1009 C1009      1.813524    -5.350783    18.522283 C    1 RES 0.0000
  1010 C1010      1.813524    20.992217    18.522283 C    1 RES 0.0000
  1011 C1011     28.156524    -5.350783    18.522283 C    1 RES 0.0000
  1012 C1012     28.156524    20.992217    18.522283 C    1 RES 0.0000
  1013 C1013      1.813524     5.350783     7.820717 C    1 RES 0.0000
  1014 C1014      1.813524    31.693783     7.820717 C    1 RES 0.0000
  1015 C1015     28.156524     5.350783     7.820717 C    1 RES 0.0000
  1016 C1016     28.156524    31.693783     7.820717 C    1 RES 0.0000
  1017 C1017     11.357976     7.820717     7.820717 C    1 RES 0.0000
  1018 C1018     11.357976    18.522283    18.522283 C    1 RES 0.0000
  1019 C1019      7.820717    18.522283    14.985024 C    1 RES 0.0000
  1020 C1020      5.350783    -5.350783    14.985024 C    1 RES 0.0000
  1021 C1021      5.350783    20.992217    14.985024 C    1 RES 0.0000
  1022 C1022     31.693783    -5.350783    14.985024 C    1 RES 0.0000
  1023 C1023     31.693783    20.992217    14.985024 C    1 RES 0.0000
  1024 C1024      7.820717     7.820717    11.357976 C    1 RES 0.0000
  1025 C1025      5.350783     5.350783    11.357976 C    1 RES 0.0000
  1026 C1026      5.350783    31.693783    11.357976 C    1 RES 0.0000
  1027 C1027     31.693783     5.350783    11.357976 C    1 RES 0.0000
  1028 C1028     31.693783    31.693783    11.357976 C    1 RES 0.0000
  1029 C1029      7.820717    11.357976    18.522283 C    1 RES 0.0000
  1030 C1030      5.350783    -1.813524     7.820717 C    1 RES 0.0000
  1031 C1031      5.350783    24.529476     7.820717 C    1 RES 0.0000
  1032 C1032     31.693783    -1.813524     7.820717 C    1 RES 0.0000
  1033 C1033     31.693783    24.529476     7.820717 C    1 RES 0.0000
  1034 C1034      7.820717    14.985024     7.820717 C    1 RES 0.0000
  1035 C1035      5.350783     1.813524    18.522283 C    1 RES 0.0000
  1036 C1036      5.350783    28.156524    18.522283 C    1 RES 0.0000
  1037 C1037     31.693783     1.813524    18.522283 C    1 RES 0.0000
  1038 C1038     31.693783    28.156524    18.522283 C    1 RES 0.0000
  1039 C1039      5.350783     5.350783    14.985024 C    1 RES 0.0000
  1040 C1040      5.350783    31.693783    14.985024 C    1 RES 0.0000
  1041 C1041     31.693783     5.350783    14.985024 C    1 RES 0.0000
  1042 C1042     31.693783    31.693783    14.985024 C    1 RES 0.0000
  1043 C1043      7.820717     7.820717    14.985024 C    1 RES 0.0000
  1044 C1044      7.820717    18.522283    11.357976 C    1 RES 0.0000
  1045 C1045      5.350783    -5.350783    11.357976 C    1 RES 0.0000
  1046 C1046      5.350783    20.992217    11.357976 C    1 RES 0.0000
  1047 C1047     31.693783    -5.350783    11.357976 C    1 RES 0.0000
  1048 C1048     31.693783    20.992217    11.357976 C    1 RES 0.0000
  1049 C1049      1.813524    -5.350783     7.820717 C    1 RES 0.0000
  1050 C1050      1.813524    20.992217     7.820717 C    1 RES 0.0000
  1051 C1051     28.156524    -5.350783     7.820717 C    1 RES 0.0000
  1052 C1052     28.156524    20.992217     7.820717 C    1 RES 0.0000
  1053 C1053      1.813524     5.350783    18.522283 C    1 RES 0.0000
  1054 C1054      1.813524    31.693783    18.522283 C    1 RES 0.0000
  1055 C1055     28.156524     5.350783    18.522283 C    1 RES 0.0000
  1056 C1056     28.156524    31.693783    18.522283 C    1 RES 0.0000
  1057 C1057     11.357976    18.522283     7.820717 C    1 RES 0.0000
  1058 C1058     11.357976     7.820717    18.522283 C    1 RES 0.0000
  1059 C1059      4.681951     2.983195     8.489549 C    1 RES 0.0000
  1060 C1060      4.681951    29.326195     8.489549 C    1 RES 0.0000
  1061 C1061     31.024951     2.983195     8.489549 C    1 RES 0.0000
  1062 C1062     31.024951    29.326195     8.489549 C    1 RES 0.0000
  1063 C1063      8.489549    16.154695    17.853451 C    1 RES 0.0000
  1064 C1064      8.489549    10.188305     8.489549 C    1 RES 0.0000
  1065 C1065      4.681951    -2.983195    17.853451 C    1 RES 0.0000
  1066 C1066      4.681951    23.359805    17.853451 C    1 RES 0.0000
  1067 C1067     31.024951    -2.983195    17.853451 C    1 RES 0.0000
  1068 C1068     31.024951    23.359805    17.853451 C    1 RES 0.0000
  1069 C1069      2.983195    -4.681951    17.853451 C    1 RES 0.0000
  1070 C1070      2.983195    21.661049    17.853451 C    1 RES 0.0000
  1071 C1071     29.326195    -4.681951    17.853451 C    1 RES 0.0000
  1072 C1072     29.326195    21.661049    17.853451 C    1 RES 0.0000
  1073 C1073      2.983195     4.681951     8.489549 C    1 RES 0.0000
  1074 C1074      2.983195    31.024951     8.489549 C    1 RES 0.0000
  1075 C1075     29.326195     4.681951     8.489549 C    1 RES 0.0000
  1076 C1076     29.326195    31.024951     8.489549 C    1 RES 0.0000
  1077 C1077     10.188305     8.489549     8.489549 C    1 RES 0.0000
  1078 C1078     10.188305    17.853451    17.853451 C    1 RES 0.0000
  1079 C1079      8.489549    17.853451    16.154695 C    1 RES 0.0000
  1080 C1080      4.681951    -4.681951    16.154695 C    1 RES 0.0000
  1081 C1081      4.681951    21.661049    16.154695 C    1 RES 0.0000
  1082 C1082     31.024951    -4.681951    16.154695 C    1 RES 0.0000
  1083 C1083     31.024951    21.661049    16.154695 C    1 RES 0.0000
  1084 C1084      8.489549     8.489549    10.188305 C    1 RES 0.0000
  1085 C1085      4.681951     4.681951    10.188305 C    1 RES 0.0000
  1086 C1086      4.681951    31.024951    10.188305 C    1 RES 0.0000
  1087 C1087     31.024951     4.681951    10.188305 C    1 RES 0.0000
  1088 C1088     31.024951    31.024951    10.188305 C    1 RES 0.0000
  1089 C1089      8.489549    10.188305    17.853451 C    1 RES 0.0000
  1090 C1090      4.681951    -2.983195     8.489549 C    1 RES 0.0000
  1091 C1091      4.681951    23.359805     8.489549 C    1 RES 0.0000
  1092 C1092     31.024951    -2.983195     8.489549 C    1 RES 0.0000
  1093 C1093     31.024951    23.359805     8.489549 C    1 RES 0.0000
  1094 C1094      8.489549    16.154695     8.489549 C    1 RES 0.0000
  1095 C1095      4.681951     2.983195    17.853451 C    1 RES 0.0000
  1096 C1096      4.681951    29.326195    17.853451 C    1 RES 0.0000
  1097 C1097     31.024951     2.983195    17.853451 C    1 RES 0.0000
  1098 C1098     31.024951    29.326195    17.853451 C    1 RES 0.0000
  1099 C1099      4.681951     4.681951    16.154695 C    1 RES 0.0000
  1100 C1100      4.681951    31.024951    16.154695 C    1 RES 0.0000
  1101 C1101     31.024951     4.681951    16.154695 C    1 RES 0.0000
  1102 C1102     31.024951    31.024951    16.154695 C    1 RES 0.0000
  1103 C1103      8.489549     8.489549    16.154695 C    1 RES 0.0000
  1104 C1104      8.489549    17.853451    10.188305 C    1 RES 0.0000
  1105 C1105      4.681951    -4.681951    10.188305 C    1 RES 0.0000
  1106 C1106      4.681951    21.661049    10.188305 C    1 RES 0.0000
  1107 C1107     31.024951    -4.681951    10.188305 C    1 RES 0.0000
  1108 C1108     31.024951    21.661049    10.188305 C    1 RES 0.0000
  1109 C1109      2.983195    -4.681951     8.489549 C    1 RES 0.0000
  1110 C1110      2.983195    21.661049     8.489549 C    1 RES 0.0000
  1111 C1111     29.326195    -4.681951     8.489549 C    1 RES 0.0000
  1112 C1112     29.326195    21.661049     8.489549 C    1 RES 0.0000
  1113 C1113      2.983195     4.681951    17.853451 C    1 RES 0.0000
  1114 C1114      2.983195    31.024951    17.853451 C    1 RES 0.0000
  1115 C1115     29.326195     4.681951    17.853451 C    1 RES 0.0000
  1116 C1116     29.326195    31.024951    17.853451 C    1 RES 0.0000
  1117 C1117     10.188305    17.853451     8.489549 C    1 RES 0.0000
  1118 C1118     10.188305     8.489549    17.853451 C    1 RES 0.0000
  1119 C1119      3.543908     3.543908     7.919469 C    1 RES 0.0000
  1120 C1120      3.543908    29.886908     7.919469 C    1 RES 0.0000
  1121 C1121     29.886908     3.543908     7.919469 C    1 RES 0.0000
  1122 C1122     29.886908    29.886908     7.919469 C    1 RES 0.0000
  1123 C1123      9.627592    16.715408    18.423531 C    1 RES 0.0000
  1124 C1124      9.627592     9.627592     7.919469 C    1 RES 0.0000
  1125 C1125      3.543908    -3.543908    18.423531 C    1 RES 0.0000
  1126 C1126      3.543908    22.799092    18.423531 C    1 RES 0.0000
  1127 C1127     29.886908    -3.543908    18.423531 C    1 RES 0.0000
  1128 C1128     29.886908    22.799092    18.423531 C    1 RES 0.0000
  1129 C1129      3.543908    -5.252031    16.715408 C    1 RES 0.0000
  1130 C1130      3.543908    21.090969    16.715408 C    1 RES 0.0000
  1131 C1131     29.886908    -5.252031    16.715408 C    1 RES 0.0000
  1132 C1132     29.886908    21.090969    16.715408 C    1 RES 0.0000
  1133 C1133      3.543908     5.252031     9.627592 C    1 RES 0.0000
  1134 C1134      3.543908    31.595031     9.627592 C    1 RES 0.0000
  1135 C1135     29.886908     5.252031     9.627592 C    1 RES 0.0000
  1136 C1136     29.886908    31.595031     9.627592 C    1 RES 0.0000
  1137 C1137      9.627592     7.919469     9.627592 C    1 RES 0.0000
  1138 C1138      9.627592    18.423531    16.715408 C    1 RES 0.0000
  1139 C1139      7.919469    16.715408    16.715408 C    1 RES 0.0000
  1140 C1140      5.252031    -3.543908    16.715408 C    1 RES 0.0000
  1141 C1141      5.252031    22.799092    16.715408 C    1 RES 0.0000
  1142 C1142     31.595031    -3.543908    16.715408 C    1 RES 0.0000
  1143 C1143     31.595031    22.799092    16.715408 C    1 RES 0.0000
  1144 C1144      7.919469     9.627592     9.627592 C    1 RES 0.0000
  1145 C1145      5.252031     3.543908     9.627592 C    1 RES 0.0000
  1146 C1146      5.252031    29.886908     9.627592 C    1 RES 0.0000
  1147 C1147     31.595031     3.543908     9.627592 C    1 RES 0.0000
  1148 C1148     31.595031    29.886908     9.627592 C    1 RES 0.0000
  1149 C1149      7.919469     9.627592    16.715408 C    1 RES 0.0000
  1150 C1150      5.252031    -3.543908     9.627592 C    1 RES 0.0000
  1151 C1151      5.252031    22.799092     9.627592 C    1 RES 0.0000
  1152 C1152     31.595031    -3.543908     9.627592 C    1 RES 0.0000
  1153 C1153     31.595031    22.799092     9.627592 C    1 RES 0.0000
  1154 C1154      7.919469    16.715408     9.627592 C    1 RES 0.0000
  1155 C1155      5.252031     3.543908    16.715408 C    1 RES 0.0000
  1156 C1156      5.252031    29.886908    16.715408 C    1 RES 0.0000
  1157 C1157     31.595031     3.543908    16.715408 C    1 RES 0.0000
  1158 C1158     31.595031    29.886908    16.715408 C    1 RES 0.0000
  1159 C1159      3.543908     5.252031    16.715408 C    1 RES 0.0000
  1160 C1160      3.543908    31.595031    16.715408 C    1 RES 0.0000
  1161 C1161     29.886908     5.252031    16.715408 C    1 RES 0.0000
  1162 C1162     29.886908    31.595031    16.715408 C    1 RES 0.0000
  1163 C1163      9.627592     7.919469    16.715408 C    1 RES 0.0000
  1164 C1164      9.627592    18.423531     9.627592 C    1 RES 0.0000
  1165 C1165      3.543908    -5.252031     9.627592 C    1 RES 0.0000
  1166 C1166      3.543908    21.090969     9.627592 C    1 RES 0.0000
  1167 C1167     29.886908    -5.252031     9.627592 C    1 RES 0.0000
  1168 C1168     29.886908    21.090969     9.627592 C    1 RES 0.0000
  1169 C1169      3.543908    -3.543908     7.919469 C    1 RES 0.0000
  1170 C1170      3.543908    22.799092     7.919469 C    1 RES 0.0000
  1171 C1171     29.886908    -3.543908     7.919469 C    1 RES 0.0000
  1172 C1172     29.886908    22.799092     7.919469 C    1 RES 0.0000
  1173 C1173      3.543908     3.543908    18.423531 C    1 RES 0.0000
  1174 C1174      3.543908    29.886908    18.423531 C    1 RES 0.0000
  1175 C1175     29.886908     3.543908    18.423531 C    1 RES 0.0000
  1176 C1176     29.886908    29.886908    18.423531 C    1 RES 0.0000
  1177 C1177      9.627592    16.715408     7.919469 C    1 RES 0.0000
  1178 C1178      9.627592     9.627592    18.423531 C    1 RES 0.0000
  1179 C1179      5.350783    14.985024    -5.350783 C    1 RES 0.0000
  1180 C1180      5.350783    14.985024    20.992217 C    1 RES 0.0000
  1181 C1181     31.693783    14.985024    -5.350783 C    1 RES 0.0000
  1182 C1182     31.693783    14.985024    20.992217 C    1 RES 0.0000
  1183 C1183      7.820717     1.813524     5.350783 C    1 RES 0.0000
  1184 C1184      7.820717     1.813524    31.693783 C    1 RES 0.0000
  1185 C1185      7.820717    28.156524     5.350783 C    1 RES 0.0000
  1186 C1186      7.820717    28.156524    31.693783 C    1 RES 0.0000
  1187 C1187      7.820717    -1.813524    -5.350783 C    1 RES 0.0000
  1188 C1188      7.820717    -1.813524    20.992217 C    1 RES 0.0000
  1189 C1189      7.820717    24.529476    -5.350783 C    1 RES 0.0000
  1190 C1190      7.820717    24.529476    20.992217 C    1 RES 0.0000
  1191 C1191      5.350783    11.357976     5.350783 C    1 RES 0.0000
  1192 C1192      5.350783    11.357976    31.693783 C    1 RES 0.0000
  1193 C1193     31.693783    11.357976     5.350783 C    1 RES 0.0000
  1194 C1194     31.693783    11.357976    31.693783 C    1 RES 0.0000
  1195 C1195      1.813524     7.820717     5.350783 C    1 RES 0.0000
  1196 C1196      1.813524     7.820717    31.693783 C    1 RES 0.0000
  1197 C1197     28.156524     7.820717     5.350783 C    1 RES 0.0000
  1198 C1198     28.156524     7.820717    31.693783 C    1 RES 0.0000
  1199 C1199      1.813524    18.522283    -5.350783 C    1 RES 0.0000
  1200 C1200      1.813524    18.522283    20.992217 C    1 RES 0.0000
  1201 C1201     28.156524    18.522283    -5.350783 C    1 RES 0.0000
  1202 C1202     28.156524    18.522283    20.992217 C    1 RES 0.0000
  1203 C1203     11.357976    -5.350783    -5.350783 C    1 RES 0.0000
  1204 C1204     11.357976    -5.350783    20.992217 C    1 RES 0.0000
  1205 C1205     11.357976    20.992217    -5.350783 C    1 RES 0.0000
  1206 C1206     11.357976    20.992217    20.992217 C    1 RES 0.0000
  1207 C1207     11.357976     5.350783     5.350783 C    1 RES 0.0000
  1208 C1208     11.357976     5.350783    31.693783 C    1 RES 0.0000
  1209 C1209     11.357976    31.693783     5.350783 C    1 RES 0.0000
  1210 C1210     11.357976    31.693783    31.693783 C    1 RES 0.0000
  1211 C1211      7.820717     5.350783     1.813524 C    1 RES 0.0000
  1212 C1212      7.820717     5.350783    28.156524 C    1 RES 0.0000
  1213 C1213      7.820717    31.693783     1.813524 C    1 RES 0.0000
  1214 C1214      7.820717    31.693783    28.156524 C    1 RES 0.0000
  1215 C1215      5.350783     7.820717     1.813524 C    1 RES 0.0000
  1216 C1216      5.350783     7.820717    28.156524 C    1 RES 0.0000
  1217 C1217     31.693783     7.820717     1.813524 C    1 RES 0.0000
  1218 C1218     31.693783     7.820717    28.156524 C    1 RES 0.0000
  1219 C1219      7.820717    -5.350783    -1.813524 C    1 RES 0.0000
  1220 C1220      7.820717    -5.350783    24.529476 C    1 RES 0.0000
  1221 C1221      7.820717    20.992217    -1.813524 C    1 RES 0.0000
  1222 C1222      7.820717    20.992217    24.529476 C    1 RES 0.0000
  1223 C1223      5.350783    18.522283    -1.813524 C    1 RES 0.0000
  1224 C1224      5.350783    18.522283    24.529476 C    1 RES 0.0000
  1225 C1225     31.693783    18.522283    -1.813524 C    1 RES 0.0000
  1226 C1226     31.693783    18.522283    24.529476 C    1 RES 0.0000
  1227 C1227      7.820717    -1.813524     5.350783 C    1 RES 0.0000
  1228 C1228      7.820717    -1.813524    31.693783 C    1 RES 0.0000
  1229 C1229      7.820717    24.529476     5.350783 C    1 RES 0.0000
  1230 C1230      7.820717    24.529476    31.693783 C    1 RES 0.0000
  1231 C1231      5.350783    11.357976    -5.350783 C    1 RES 0.0000
  1232 C1232      5.350783    11.357976    20.992217 C    1 RES 0.0000
  1233 C1233     31.693783    11.357976    -5.350783 C    1 RES 0.0000
  1234 C1234     31.693783    11.357976    20.992217 C    1 RES 0.0000
  1235 C1235      7.820717     1.813524    -5.350783 C    1 RES 0.0000
  1236 C1236      7.820717     1.813524    20.992217 C    1 RES 0.0000
  1237 C1237      7.820717    28.156524    -5.350783 C    1 RES 0.0000
  1238 C1238      7.820717    28.156524    20.992217 C    1 RES 0.0000
  1239 C1239      5.350783    14.985024     5.350783 C    1 RES 0.0000
  1240 C1240      5.350783    14.985024    31.693783 C    1 RES 0.0000
  1241 C1241     31.693783    14.985024     5.350783 C    1 RES 0.0000
  1242 C1242     31.693783    14.985024    31.693783 C    1 RES 0.0000
  1243 C1243      5.350783    18.522283     1.813524 C    1 RES 0.0000
  1244 C1244      5.350783    18.522283    28.156524 C    1 RES 0.0000
  1245 C1245     31.693783    18.522283     1.813524 C    1 RES 0.0000
  1246 C1246     31.693783    18.522283    28.156524 C    1 RES 0.0000
  1247 C1247      7.820717    -5.350783     1.813524 C    1 RES 0.0000
  1248 C1248      7.820717    -5.350783    28.156524 C    1 RES 0.0000
  1249 C1249      7.820717    20.992217     1.813524 C    1 RES 0.0000
  1250 C1250      7.820717    20.992217    28.156524 C    1 RES 0.0000
  1251 C1251      7.820717     5.350783    -1.813524 C    1 RES 0.0000
  1252 C1252      7.820717     5.350783    24.529476 C    1 RES 0.0000
  1253 C1253      7.820717    31.693783    -1.813524 C    1 RES 0.0000
  1254 C1254      7.820717    31.693783    24.529476 C    1 RES 0.0000
  1255 C1255      5.350783     7.820717    -1.813524 C    1 RES 0.0000
  1256 C1256      5.350783     7.820717    24.529476 C    1 RES 0.0000
  1257 C1257     31.693783     7.820717    -1.813524 C    1 RES 0.0000
  1258 C1258     31.693783     7.820717    24.529476 C    1 RES 0.0000
  1259 C1259      1.813524     7.820717    -5.350783 C    1 RES 0.0000
  1260 C1260      1.813524     7.820717    20.992217 C    1 RES 0.0000
  1261 C1261     28.156524     7.820717    -5.350783 C    1 RES 0.0000
  1262 C1262     28.156524     7.820717    20.992217 C    1 RES 0.0000
  1263 C1263      1.813524    18.522283     5.350783 C    1 RES 0.0000
  1264 C1264      1.813524    18.522283    31.693783 C    1 RES 0.0000
  1265 C1265     28.156524    18.522283     5.350783 C    1 RES 0.0000
  1266 C1266     28.156524    18.522283    31.693783 C    1 RES 0.0000
  1267 C1267     11.357976     5.350783    -5.350783 C    1 RES 0.0000
  1268 C1268     11.357976     5.350783    20.992217 C    1 RES 0.0000
  1269 C1269     11.357976    31.693783    -5.350783 C    1 RES 0.0000
  1270 C1270     11.357976    31.693783    20.992217 C    1 RES 0.0000
  1271 C1271     11.357976    -5.350783     5.350783 C    1 RES 0.0000
  1272 C1272     11.357976    -5.350783    31.693783 C    1 RES 0.0000
  1273 C1273     11.357976    20.992217     5.350783 C    1 RES 0.0000
  1274 C1274     11.357976    20.992217    31.693783 C    1 RES 0.0000
  1275 C1275      4.681951    16.154695    -4.681951 C    1 RES 0.0000
  1276 C1276      4.681951    16.154695    21.661049 C    1 RES 0.0000
  1277 C1277     31.024951    16.154695    -4.681951 C    1 RES 0.0000
  1278 C1278     31.024951    16.154695    21.661049 C    1 RES 0.0000
  1279 C1279      8.489549     2.983195     4.681951 C    1 RES 0.0000
  1280 C1280      8.489549     2.983195    31.024951 C    1 RES 0.0000
  1281 C1281      8.489549    29.326195     4.681951 C    1 RES 0.0000
  1282 C1282      8.489549    29.326195    31.024951 C    1 RES 0.0000
  1283 C1283      8.489549    -2.983195    -4.681951 C    1 RES 0.0000
  1284 C1284      8.489549    -2.983195    21.661049 C    1 RES 0.0000
  1285 C1285      8.489549    23.359805    -4.681951 C    1 RES 0.0000
  1286 C1286      8.489549    23.359805    21.661049 C    1 RES 0.0000
  1287 C1287      4.681951    10.188305     4.681951 C    1 RES 0.0000
  1288 C1288      4.681951    10.188305    31.024951 C    1 RES 0.0000
  1289 C1289     31.024951    10.188305     4.681951 C    1 RES 0.0000
  1290 C1290     31.024951    10.188305    31.024951 C    1 RES 0.0000
  1291 C1291      2.983195     8.489549     4.681951 C    1 RES 0.0000
  1292 C1292      2.983195     8.489549    31.024951 C    1 RES 0.0000
  1293 C1293     29.326195     8.489549     4.681951 C    1 RES 0.0000
  1294 C1294     29.326195     8.489549    31.024951 C    1 RES 0.0000
  1295 C1295      2.983195    17.853451    -4.681951 C    1 RES 0.0000
  1296 C1296      2.983195    17.853451    21.661049 C    1 RES 0.0000
  1297 C1297     29.326195    17.853451    -4.681951 C    1 RES 0.0000
  1298 C1298     29.326195    17.853451    21.661049 C    1 RES 0.0000
  1299 C1299     10.188305    -4.681951    -4.681951 C    1 RES 0.0000
  1300 C1300     10.188305    -4.681951    21.661049 C    1 RES 0.0000
  1301 C1301     10.188305    21.661049    -4.681951 C    1 RES 0.0000
  1302 C1302     10.188305    21.661049    21.661049 C    1 RES 0.0000
  1303 C1303     10.188305     4.681951     4.681951 C    1 RES 0.0000
  1304 C1304     10.188305     4.681951    31.024951 C    1 RES 0.0000
  1305 C1305     10.188305    31.024951     4.681951 C    1 RES 0.0000
  1306 C1306     10.188305    31.024951    31.024951 C    1 RES 0.0000
  1307 C1307      8.489549     4.681951     2.983195 C    1 RES 0.0000
  1308 C1308      8.489549     4.681951    29.326195 C    1 RES 0.0000
  1309 C1309      8.489549    31.024951     2.983195 C    1 RES 0.0000
  1310 C1310      8.489549    31.024951    29.326195 C    1 RES 0.0000
  1311 C1311      4.681951     8.489549     2.983195 C    1 RES 0.0000
  1312 C1312      4.681951     8.489549    29.326195 C    1 RES 0.0000
  1313 C1313     31.024951     8.489549     2.983195 C    1 RES 0.0000
  1314 C1314     31.024951     8.489549    29.326195 C    1 RES 0.0000
  1315 C1315      8.489549    -4.681951    -2.983195 C    1 RES 0.0000
  1316 C1316      8.489549    -4.681951    23.359805 C    1 RES 0.0000
  1317 C1317      8.489549    21.661049    -2.983195 C    1 RES 0.0000
  1318 C1318      8.489549    21.661049    23.359805 C    1 RES 0.0000
  1319 C1319      4.681951    17.853451    -2.983195 C    1 RES 0.0000
  1320 C1320      4.681951    17.853451    23.359805 C    1 RES 0.0000
  1321 C1321     31.024951    17.853451    -2.983195 C    1 RES 0.0000
  1322 C1322     31.024951    17.853451    23.359805 C    1 RES 0.0000
  1323 C1323      8.489549    -2.983195     4.681951 C    1 RES 0.0000
  1324 C1324      8.489549    -2.983195    31.024951 C    1 RES 0.0000
  1325 C1325      8.489549    23.359805     4.681951 C    1 RES 0.0000
  1326 C1326      8.489549    23.359805    31.024951 C    1 RES 0.0000
  1327 C1327      4.681951    10.188305    -4.681951 C    1 RES 0.0000
  1328 C1328      4.681951    10.188305    21.661049 C    1 RES 0.0000
  1329 C1329     31.024951    10.188305    -4.681951 C    1 RES 0.0000
  1330 C1330     31.024951    10.188305    21.661049 C    1 RES 0.0000
  1331 C1331      8.489549     2.983195    -4.681951 C    1 RES 0.0000
  1332 C1332      8.489549     2.983195    21.661049 C    1 RES 0.0000
  1333 C1333      8.489549    29.326195    -4.681951 C    1 RES 0.0000
  1334 C1334      8.489549    29.326195    21.661049 C    1 RES 0.0000
  1335 C1335      4.681951    16.154695     4.681951 C    1 RES 0.0000
  1336 C1336      4.681951    16.154695    31.024951 C    1 RES 0.0000
  1337 C1337     31.024951    16.154695     4.681951 C    1 RES 0.0000
  1338 C1338     31.024951    16.154695    31.024951 C    1 RES 0.0000
  1339 C1339      4.681951    17.853451     2.983195 C    1 RES 0.0000
  1340 C1340      4.681951    17.853451    29.326195 C    1 RES 0.0000
  1341 C1341     31.024951    17.853451     2.983195 C    1 RES 0.0000
  1342 C1342     31.024951    17.853451    29.326195 C    1 RES 0.0000
  1343 C1343      8.489549    -4.681951     2.983195 C    1 RES 0.0000
  1344 C1344      8.489549    -4.681951    29.326195 C    1 RES 0.0000
  1345 C1345      8.489549    21.661049     2.983195 C    1 RES 0.0000
  1346 C1346      8.489549    21.661049    29.326195 C    1 RES 0.0000
  1347 C1347      8.489549     4.681951    -2.983195 C    1 RES 0.0000
  1348 C1348      8.489549     4.681951    23.359805 C    1 RES 0.0000
  1349 C1349      8.489549    31.024951    -2.983195 C    1 RES 0.0000
  1350 C1350      8.489549    31.024951    23.359805 C    1 RES 0.0000
  1351 C1351      4.681951     8.489549    -2.983195 C    1 RES 0.0000
  1352 C1352      4.681951     8.489549    23.359805 C    1 RES 0.0000
  1353 C1353     31.024951     8.489549    -2.983195 C    1 RES 0.0000
  1354 C1354     31.024951     8.489549    23.359805 C    1 RES 0.0000
  1355 C1355      2.983195     8.489549    -4.681951 C    1 RES 0.0000
  1356 C1356      2.983195     8.489549    21.661049 C    1 RES 0.0000
  1357 C1357     29.326195     8.489549    -4.681951 C    1 RES 0.0000
  1358 C1358     29.326195     8.489549    21.661049 C    1 RES 0.0000
  1359 C1359      2.983195    17.853451     4.681951 C    1 RES 0.0000
  1360 C1360      2.983195    17.853451    31.024951 C    1 RES 0.0000
  1361 C1361     29.326195    17.853451     4.681951 C    1 RES 0.0000
  1362 C1362     29.326195    17.853451    31.024951 C    1 RES 0.0000
  1363 C1363     10.188305     4.681951    -4.681951 C    1 RES 0.0000
  1364 C1364     10.188305     4.681951    21.661049 C    1 RES 0.0000
  1365 C1365     10.188305    31.024951    -4.681951 C    1 RES 0.0000
  1366 C1366     10.188305    31.024951    21.661049 C    1 RES 0.0000
  1367 C1367     10.188305    -4.681951     4.681951 C    1 RES 0.0000
  1368 C1368     10.188305    -4.681951    31.024951 C    1 RES 0.0000
  1369 C1369     10.188305    21.661049     4.681951 C    1 RES 0.0000
  1370 C1370     10.188305    21.661049    31.024951 C    1 RES 0.0000
  1371 C1371      3.543908    16.715408    -5.252031 C    1 RES 0.0000
  1372 C1372      3.543908    16.715408    21.090969 C    1 RES 0.0000
  1373 C1373     29.886908    16.715408    -5.252031 C    1 RES 0.0000
  1374 C1374     29.886908    16.715408    21.090969 C    1 RES 0.0000
  1375 C1375      9.627592     3.543908     5.252031 C    1 RES 0.0000
  1376 C1376      9.627592     3.543908    31.595031 C    1 RES 0.0000
  1377 C1377      9.627592    29.886908     5.252031 C    1 RES 0.0000
  1378 C1378      9.627592    29.886908    31.595031 C    1 RES 0.0000
  1379 C1379      9.627592    -3.543908    -5.252031 C    1 RES 0.0000
  1380 C1380      9.627592    -3.543908    21.090969 C    1 RES 0.0000
  1381 C1381      9.627592    22.799092    -5.252031 C    1 RES 0.0000
  1382 C1382      9.627592    22.799092    21.090969 C    1 RES 0.0000
  1383 C1383      3.543908     9.627592     5.252031 C    1 RES 0.0000
  1384 C1384      3.543908     9.627592    31.595031 C    1 RES 0.0000
  1385 C1385     29.886908     9.627592     5.252031 C    1 RES 0.0000
  1386 C1386     29.886908     9.627592    31.595031 C    1 RES 0.0000
  1387 C1387      3.543908     7.919469     3.543908 C    1 RES 0.0000
  1388 C1388      3.543908     7.919469    29.886908 C    1 RES 0.0000
  1389 C1389     29.886908     7.919469     3.543908 C    1 RES 0.0000
  1390 C1390     29.886908     7.919469    29.886908 C    1 RES 0.0000
  1391 C1391      3.543908    18.423531    -3.543908 C    1 RES 0.0000
  1392 C1392      3.543908    18.423531    22.799092 C    1 RES 0.0000
  1393 C1393     29.886908    18.423531    -3.543908 C    1 RES 0.0000
  1394 C1394     29.886908    18.423531    22.799092 C    1 RES 0.0000
  1395 C1395      9.627592    -5.252031    -3.543908 C    1 RES 0.0000
  1396 C1396      9.627592    -5.252031    22.799092 C    1 RES 0.0000
  1397 C1397      9.627592    21.090969    -3.543908 C    1 RES 0.0000
  1398 C1398      9.627592    21.090969    22.799092 C    1 RES 0.0000
  1399 C1399      9.627592     5.252031     3.543908 C    1 RES 0.0000
  1400 C1400      9.627592     5.252031    29.886908 C    1 RES 0.0000
  1401 C1401      9.627592    31.595031     3.543908 C    1 RES 0.0000
  1402 C1402      9.627592    31.595031    29.886908 C    1 RES 0.0000
  1403 C1403      7.919469     3.543908     3.543908 C    1 RES 0.0000
  1404 C1404      7.919469     3.543908    29.886908 C    1 RES 0.0000
  1405 C1405      7.919469    29.886908     3.543908 C    1 RES 0.0000
  1406 C1406      7.919469    29.886908    29.886908 C    1 RES 0.0000
  1407 C1407      5.252031     9.627592     3.543908 C    1 RES 0.0000
  1408 C1408      5.252031     9.627592    29.886908 C    1 RES 0.0000
  1409 C1409     31.595031     9.627592     3.543908 C    1 RES 0.0000
  1410 C1410     31.595031     9.627592    29.886908 C    1 RES 0.0000
  1411 C1411      7.919469    -3.543908    -3.543908 C    1 RES 0.0000
  1412 C1412      7.919469    -3.543908    22.799092 C    1 RES 0.0000
  1413 C1413      7.919469    22.799092    -3.543908 C    1 RES 0.0000
  1414 C1414      7.919469    22.799092    22.799092 C    1 RES 0.0000
  1415 C1415      5.252031    16.715408    -3.543908 C    1 RES 0.0000
  1416 C1416      5.252031    16.715408    22.799092 C    1 RES 0.0000
  1417 C1417     31.595031    16.715408    -3.543908 C    1 RES 0.0000
  1418 C1418     31.595031    16.715408    22.799092 C    1 RES 0.0000
  1419 C1419      7.919469    -3.543908     3.543908 C    1 RES 0.0000
  1420 C1420      7.919469    -3.543908    29.886908 C    1 RES 0.0000
  1421 C1421      7.919469    22.799092     3.543908 C    1 RES 0.0000
  1422 C1422      7.919469    22.799092    29.886908 C    1 RES 0.0000
  1423 C1423      5.252031     9.627592    -3.543908 C    1 RES 0.0000
  1424 C1424      5.252031     9.627592    22.799092 C    1 RES 0.0000
  1425 C1425     31.595031     9.627592    -3.543908 C    1 RES 0.0000
  1426 C1426     31.595031     9.627592    22.799092 C    1 RES 0.0000
  1427 C1427      7.919469     3.543908    -3.543908 C    1 RES 0.0000
  1428 C1428      7.919469     3.543908    22.799092 C    1 RES 0.0000
  1429 C1429      7.919469    29.886908    -3.543908 C    1 RES 0.0000
  1430 C1430      7.919469    29.886908    22.799092 C    1 RES 0.0000
  1431 C1431      5.252031    16.715408     3.543908 C    1 RES 0.0000
  1432 C1432      5.252031    16.715408    29.886908 C    1 RES 0.0000
  1433 C1433     31.595031    16.715408     3.543908 C    1 RES 0.0000
  1434 C1434     31.595031    16.715408    29.886908 C    1 RES 0.0000
  1435 C1435      3.543908    18.423531     3.543908 C    1 RES 0.0000
  1436 C1436      3.543908    18.423531    29.886908 C    1 RES 0.0000
  1437 C1437     29.886908    18.423531     3.543908 C    1 RES 0.0000
  1438 C1438     29.886908    18.423531    29.886908 C    1 RES 0.0000
  1439 C1439      9.627592    -5.252031     3.543908 C    1 RES 0.0000
  1440 C1440      9.627592    -5.252031    29.886908 C    1 RES 0.0000
  1441 C1441      9.627592    21.090969     3.543908 C    1 RES 0.0000
  1442 C1442      9.627592    21.090969    29.886908 C    1 RES 0.0000
  1443 C1443      9.627592     5.252031    -3.543908 C    1 RES 0.0000
  1444 C1444      9.627592     5.252031    22.799092 C    1 RES 0.0000
  1445 C1445      9.627592    31.595031    -3.543908 C    1 RES 0.0000
  1446 C1446      9.627592    31.595031    22.799092 C    1 RES 0.0000
  1447 C1447      3.543908     7.919469    -3.543908 C    1 RES 0.0000
  1448 C1448      3.543908     7.919469    22.799092 C    1 RES 0.0000
  1449 C1449     29.886908     7.919469    -3.543908 C    1 RES 0.0000
  1450 C1450     29.886908     7.919469    22.799092 C    1 RES 0.0000
  1451 C1451      3.543908     9.627592    -5.252031 C    1 RES 0.0000
  1452 C1452      3.543908     9.627592    21.090969 C    1 RES 0.0000
  1453 C1453     29.886908     9.627592    -5.252031 C    1 RES 0.0000
  1454 C1454     29.886908     9.627592    21.090969 C    1 RES 0.0000
  1455 C1455      3.543908    16.715408     5.252031 C    1 RES 0.0000
  1456 C1456      3.543908    16.715408    31.595031 C    1 RES 0.0000
  1457 C1457     29.886908    16.715408     5.252031 C    1 RES 0.0000
  1458 C1458     29.886908    16.715408    31.595031 C    1 RES 0.0000
  1459 C1459      9.627592     3.543908    -5.252031 C    1 RES 0.0000
  1460 C1460      9.627592     3.543908    21.090969 C    1 RES 0.0000
  1461 C1461      9.627592    29.886908    -5.252031 C    1 RES 0.0000
  1462 C1462      9.627592    29.886908    21.090969 C    1 RES 0.0000
  1463 C1463      9.627592    -3.543908     5.252031 C    1 RES 0.0000
  1464 C1464      9.627592    -3.543908    31.595031 C    1 RES 0.0000
  1465 C1465      9.627592    22.799092     5.252031 C    1 RES 0.0000
  1466 C1466      9.627592    22.799092    31.595031 C    1 RES 0.0000
  1467 C1467     16.097966     2.926466    19.871326 C    1 RES 0.0000
  1468 C1468     16.097966    29.269466    19.871326 C    1 RES 0.0000
  1469 C1469     -2.926466    16.097966     6.471674 C    1 RES 0.0000
  1470 C1470     23.416534    16.097966     6.471674 C    1 RES 0.0000
  1471 C1471     -2.926466    10.245034    19.871326 C    1 RES 0.0000
  1472 C1472     23.416534    10.245034    19.871326 C    1 RES 0.0000
  1473 C1473     16.097966    -2.926466     6.471674 C    1 RES 0.0000
  1474 C1474     16.097966    23.416534     6.471674 C    1 RES 0.0000
  1475 C1475     19.871326    10.245034     2.926466 C    1 RES 0.0000
  1476 C1476     19.871326    10.245034    29.269466 C    1 RES 0.0000
  1477 C1477     19.643174    -2.926466    -2.926466 C    1 RES 0.0000
  1478 C1478     19.643174    -2.926466    23.416534 C    1 RES 0.0000
  1479 C1479     19.643174    23.416534    -2.926466 C    1 RES 0.0000
  1480 C1480     19.643174    23.416534    23.416534 C    1 RES 0.0000
  1481 C1481     19.871326    16.097966    -2.926466 C    1 RES 0.0000
  1482 C1482     19.871326    16.097966    23.416534 C    1 RES 0.0000
  1483 C1483     19.643174     2.926466     2.926466 C    1 RES 0.0000
  1484 C1484     19.643174     2.926466    29.269466 C    1 RES 0.0000
  1485 C1485     19.643174    29.269466     2.926466 C    1 RES 0.0000
  1486 C1486     19.643174    29.269466    29.269466 C    1 RES 0.0000
  1487 C1487     16.097966    16.097966     6.699826 C    1 RES 0.0000
  1488 C1488     -2.926466     2.926466    19.643174 C    1 RES 0.0000
  1489 C1489     -2.926466    29.269466    19.643174 C    1 RES 0.0000
  1490 C1490     23.416534     2.926466    19.643174 C    1 RES 0.0000
  1491 C1491     23.416534    29.269466    19.643174 C    1 RES 0.0000
  1492 C1492     -2.926466    -2.926466     6.699826 C    1 RES 0.0000
  1493 C1493     -2.926466    23.416534     6.699826 C    1 RES 0.0000
  1494 C1494     23.416534    -2.926466     6.699826 C    1 RES 0.0000
  1495 C1495     23.416534    23.416534     6.699826 C    1 RES 0.0000
  1496 C1496     16.097966    10.245034    19.643174 C    1 RES 0.0000
  1497 C1497     19.871326    -2.926466    16.097966 C    1 RES 0.0000
  1498 C1498     19.871326    23.416534    16.097966 C    1 RES 0.0000
  1499 C1499     19.643174    10.245034    10.245034 C    1 RES 0.0000
  1500 C1500     19.871326     2.926466    10.245034 C    1 RES 0.0000
  1501 C1501     19.871326    29.269466    10.245034 C    1 RES 0.0000
  1502 C1502     19.643174    16.097966    16.097966 C    1 RES 0.0000
  1503 C1503      2.926466     2.926466     6.699826 C    1 RES 0.0000
  1504 C1504      2.926466    29.269466     6.699826 C    1 RES 0.0000
  1505 C1505     29.269466     2.926466     6.699826 C    1 RES 0.0000
  1506 C1506     29.269466    29.269466     6.699826 C    1 RES 0.0000
  1507 C1507     10.245034    16.097966    19.643174 C    1 RES 0.0000
  1508 C1508     10.245034    10.245034     6.699826 C    1 RES 0.0000
  1509 C1509      2.926466    -2.926466    19.643174 C    1 RES 0.0000
  1510 C1510      2.926466    23.416534    19.643174 C    1 RES 0.0000
  1511 C1511     29.269466    -2.926466    19.643174 C    1 RES 0.0000
  1512 C1512     29.269466    23.416534    19.643174 C    1 RES 0.0000
  1513 C1513      6.699826    10.245034    16.097966 C    1 RES 0.0000
  1514 C1514      6.471674    -2.926466    10.245034 C    1 RES 0.0000
  1515 C1515      6.471674    23.416534    10.245034 C    1 RES 0.0000
  1516 C1516      6.699826    16.097966    10.245034 C    1 RES 0.0000
  1517 C1517      6.471674     2.926466    16.097966 C    1 RES 0.0000
  1518 C1518      6.471674    29.269466    16.097966 C    1 RES 0.0000
  1519 C1519      2.926466    16.097966    19.871326 C    1 RES 0.0000
  1520 C1520     29.269466    16.097966    19.871326 C    1 RES 0.0000
  1521 C1521     10.245034     2.926466     6.471674 C    1 RES 0.0000
  1522 C1522     10.245034    29.269466     6.471674 C    1 RES 0.0000
  1523 C1523     10.245034    -2.926466    19.871326 C    1 RES 0.0000
  1524 C1524     10.245034    23.416534    19.871326 C    1 RES 0.0000
  1525 C1525      2.926466    10.245034     6.471674 C    1 RES 0.0000
  1526 C1526     29.269466    10.245034     6.471674 C    1 RES 0.0000
  1527 C1527      6.699826    -2.926466     2.926466 C    1 RES 0.0000
  1528 C1528      6.699826    -2.926466    29.269466 C    1 RES 0.0000
  1529 C1529      6.699826    23.416534     2.926466 C    1 RES 0.0000
  1530 C1530      6.699826    23.416534    29.269466 C    1 RES 0.0000
  1531 C1531      6.471674    10.245034    -2.926466 C    1 RES 0.0000
  1532 C1532      6.471674    10.245034    23.416534 C    1 RES 0.0000
  1533 C1533      6.699826     2.926466    -2.926466 C    1 RES 0.0000
  1534 C1534      6.699826     2.926466    23.416534 C    1 RES 0.0000
  1535 C1535      6.699826    29.269466    -2.926466 C    1 RES 0.0000
  1536 C1536      6.699826    29.269466    23.416534 C    1 RES 0.0000
  1537 C1537      6.471674    16.097966     2.926466 C    1 RES 0.0000
  1538 C1538      6.471674    16.097966    29.269466 C    1 RES 0.0000
  1539 O1539     17.981173     1.400775    19.943399 O    1 RES 0.0000
  1540 O1540     17.981173    27.743775    19.943399 O    1 RES 0.0000
  1541 O1541     -4.809673    14.572275     6.399601 O    1 RES 0.0000
  1542 O1542     21.533327    14.572275     6.399601 O    1 RES 0.0000
  1543 O1543     -4.809673    11.770725    19.943399 O    1 RES 0.0000
  1544 O1544     21.533327    11.770725    19.943399 O    1 RES 0.0000
  1545 O1545     17.981173    -1.400775     6.399601 O    1 RES 0.0000
  1546 O1546     17.981173    24.942225     6.399601 O    1 RES 0.0000
  1547 O1547     14.572275    19.943399     4.809673 O    1 RES 0.0000
  1548 O1548     14.572275    19.943399    31.152673 O    1 RES 0.0000
  1549 O1549     14.572275     6.399601    -4.809673 O    1 RES 0.0000
  1550 O1550     14.572275     6.399601    21.533327 O    1 RES 0.0000
  1551 O1551     -1.400775     6.771899    -4.809673 O    1 RES 0.0000
  1552 O1552     -1.400775     6.771899    21.533327 O    1 RES 0.0000
  1553 O1553     24.942225     6.771899    -4.809673 O    1 RES 0.0000
  1554 O1554     24.942225     6.771899    21.533327 O    1 RES 0.0000
  1555 O1555     -1.400775    19.571101     4.809673 O    1 RES 0.0000
  1556 O1556     -1.400775    19.571101    31.152673 O    1 RES 0.0000
  1557 O1557     24.942225    19.571101     4.809673 O    1 RES 0.0000
  1558 O1558     24.942225    19.571101    31.152673 O    1 RES 0.0000
  1559 O1559     19.943399    17.981173     1.400775 O    1 RES 0.0000
  1560 O1560     19.943399    17.981173    27.743775 O    1 RES 0.0000
  1561 O1561     19.571101    -4.809673     1.400775 O    1 RES 0.0000
  1562 O1562     19.571101    -4.809673    27.743775 O    1 RES 0.0000
  1563 O1563     19.571101    21.533327     1.400775 O    1 RES 0.0000
  1564 O1564     19.571101    21.533327    27.743775 O    1 RES 0.0000
  1565 O1565     19.943399     8.361827    -1.400775 O    1 RES 0.0000
  1566 O1566     19.943399     8.361827    24.942225 O    1 RES 0.0000
  1567 O1567     19.571101     4.809673    -1.400775 O    1 RES 0.0000
  1568 O1568     19.571101     4.809673    24.942225 O    1 RES 0.0000
  1569 O1569     19.571101    31.152673    -1.400775 O    1 RES 0.0000
  1570 O1570     19.571101    31.152673    24.942225 O    1 RES 0.0000
  1571 O1571     19.943399    11.770725     4.809673 O    1 RES 0.0000
  1572 O1572     19.943399    11.770725    31.152673 O    1 RES 0.0000
  1573 O1573     19.571101    -1.400775    -4.809673 O    1 RES 0.0000
  1574 O1574     19.571101    -1.400775    21.533327 O    1 RES 0.0000
  1575 O1575     19.571101    24.942225    -4.809673 O    1 RES 0.0000
  1576 O1576     19.571101    24.942225    21.533327 O    1 RES 0.0000
  1577 O1577     19.943399    14.572275    -4.809673 O    1 RES 0.0000
  1578 O1578     19.943399    14.572275    21.533327 O    1 RES 0.0000
  1579 O1579     19.571101     1.400775     4.809673 O    1 RES 0.0000
  1580 O1580     19.571101     1.400775    31.152673 O    1 RES 0.0000
  1581 O1581     19.571101    27.743775     4.809673 O    1 RES 0.0000
  1582 O1582     19.571101    27.743775    31.152673 O    1 RES 0.0000
  1583 O1583     17.981173     6.399601     1.400775 O    1 RES 0.0000
  1584 O1584     17.981173     6.399601    27.743775 O    1 RES 0.0000
  1585 O1585     -4.809673     6.771899     1.400775 O    1 RES 0.0000
  1586 O1586     -4.809673     6.771899    27.743775 O    1 RES 0.0000
  1587 O1587     21.533327     6.771899     1.400775 O    1 RES 0.0000
  1588 O1588     21.533327     6.771899    27.743775 O    1 RES 0.0000
  1589 O1589     -4.809673    19.571101    -1.400775 O    1 RES 0.0000
  1590 O1590     -4.809673    19.571101    24.942225 O    1 RES 0.0000
  1591 O1591     21.533327    19.571101    -1.400775 O    1 RES 0.0000
  1592 O1592     21.533327    19.571101    24.942225 O    1 RES 0.0000
  1593 O1593     17.981173    19.943399    -1.400775 O    1 RES 0.0000
  1594 O1594     17.981173    19.943399    24.942225 O    1 RES 0.0000
  1595 O1595     14.572275    -4.809673    19.943399 O    1 RES 0.0000
  1596 O1596     14.572275    21.533327    19.943399 O    1 RES 0.0000
  1597 O1597     14.572275     4.809673     6.399601 O    1 RES 0.0000
  1598 O1598     14.572275    31.152673     6.399601 O    1 RES 0.0000
  1599 O1599     -1.400775    17.981173    19.943399 O    1 RES 0.0000
  1600 O1600     24.942225    17.981173    19.943399 O    1 RES 0.0000
  1601 O1601     -1.400775     8.361827     6.399601 O    1 RES 0.0000
  1602 O1602     24.942225     8.361827     6.399601 O    1 RES 0.0000
  1603 O1603     -4.809673    11.770725     6.399601 O    1 RES 0.0000
  1604 O1604     21.533327    11.770725     6.399601 O    1 RES 0.0000
  1605 O1605     17.981173    -1.400775    19.943399 O    1 RES 0.0000
  1606 O1606     17.981173    24.942225    19.943399 O    1 RES 0.0000
  1607 O1607     17.981173     1.400775     6.399601 O    1 RES 0.0000
  1608 O1608     17.981173    27.743775     6.399601 O    1 RES 0.0000
  1609 O1609     -4.809673    14.572275    19.943399 O    1 RES 0.0000
  1610 O1610     21.533327    14.572275    19.943399 O    1 RES 0.0000
  1611 O1611     -1.400775    19.571101    -4.809673 O    1 RES 0.0000
  1612 O1612     -1.400775    19.571101    21.533327 O    1 RES 0.0000
  1613 O1613     24.942225    19.571101    -4.809673 O    1 RES 0.0000
  1614 O1614     24.942225    19.571101    21.533327 O    1 RES 0.0000
  1615 O1615     -1.400775     6.771899     4.809673 O    1 RES 0.0000
  1616 O1616     -1.400775     6.771899    31.152673 O    1 RES 0.0000
  1617 O1617     24.942225     6.771899     4.809673 O    1 RES 0.0000
  1618 O1618     24.942225     6.771899    31.152673 O    1 RES 0.0000
  1619 O1619     14.572275     6.399601     4.809673 O    1 RES 0.0000
  1620 O1620     14.572275     6.399601    31.152673 O    1 RES 0.0000
  1621 O1621     14.572275    19.943399    -4.809673 O    1 RES 0.0000
  1622 O1622     14.572275    19.943399    21.533327 O    1 RES 0.0000
  1623 O1623     19.571101    -4.809673    -1.400775 O    1 RES 0.0000
  1624 O1624     19.571101    -4.809673    24.942225 O    1 RES 0.0000
  1625 O1625     19.571101    21.533327    -1.400775 O    1 RES 0.0000
  1626 O1626     19.571101    21.533327    24.942225 O    1 RES 0.0000
  1627 O1627     19.943399    17.981173    -1.400775 O    1 RES 0.0000
  1628 O1628     19.943399    17.981173    24.942225 O    1 RES 0.0000
  1629 O1629     19.571101     4.809673     1.400775 O    1 RES 0.0000
  1630 O1630     19.571101     4.809673    27.743775 O    1 RES 0.0000
  1631 O1631     19.571101    31.152673     1.400775 O    1 RES 0.0000
  1632 O1632     19.571101    31.152673    27.743775 O    1 RES 0.0000
  1633 O1633     19.943399     8.361827     1.400775 O    1 RES 0.0000
  1634 O1634     19.943399     8.361827    27.743775 O    1 RES 0.0000
  1635 O1635     19.571101     1.400775    -4.809673 O    1 RES 0.0000
  1636 O1636     19.571101     1.400775    21.533327 O    1 RES 0.0000
  1637 O1637     19.571101    27.743775    -4.809673 O    1 RES 0.0000
  1638 O1638     19.571101    27.743775    21.533327 O    1 RES 0.0000
  1639 O1639     19.943399    14.572275     4.809673 O    1 RES 0.0000
  1640 O1640     19.943399    14.572275    31.152673 O    1 RES 0.0000
  1641 O1641     19.571101    -1.400775     4.809673 O    1 RES 0.0000
  1642 O1642     19.571101    -1.400775    31.152673 O    1 RES 0.0000
  1643 O1643     19.571101    24.942225     4.809673 O    1 RES 0.0000
  1644 O1644     19.571101    24.942225    31.152673 O    1 RES 0.0000
  1645 O1645     19.943399    11.770725    -4.809673 O    1 RES 0.0000
  1646 O1646     19.943399    11.770725    21.533327 O    1 RES 0.0000
  1647 O1647     -4.809673     6.771899    -1.400775 O    1 RES 0.0000
  1648 O1648     -4.809673     6.771899    24.942225 O    1 RES 0.0000
  1649 O1649     21.533327     6.771899    -1.400775 O    1 RES 0.0000
  1650 O1650     21.533327     6.771899    24.942225 O    1 RES 0.0000
  1651 O1651     17.981173     6.399601    -1.400775 O    1 RES 0.0000
  1652 O1652     17.981173     6.399601    24.942225 O    1 RES 0.0000
  1653 O1653     17.981173    19.943399     1.400775 O    1 RES 0.0000
  1654 O1654     17.981173    19.943399    27.743775 O    1 RES 0.0000
  1655 O1655     -4.809673    19.571101     1.400775 O    1 RES 0.0000
  1656 O1656     -4.809673    19.571101    27.743775 O    1 RES 0.0000
  1657 O1657     21.533327    19.571101     1.400775 O    1 RES 0.0000
  1658 O1658     21.533327    19.571101    27.743775 O    1 RES 0.0000
  1659 O1659     -1.400775    17.981173     6.399601 O    1 RES 0.0000
  1660 O1660     24.942225    17.981173     6.399601 O    1 RES 0.0000
  1661 O1661     -1.400775     8.361827    19.943399 O    1 RES 0.0000
  1662 O1662     24.942225     8.361827    19.943399 O    1 RES 0.0000
  1663 O1663     14.572275    -4.809673     6.399601 O    1 RES 0.0000
  1664 O1664     14.572275    21.533327     6.399601 O    1 RES 0.0000
  1665 O1665     14.572275     4.809673    19.943399 O    1 RES 0.0000
  1666 O1666     14.572275    31.152673    19.943399 O    1 RES 0.0000
  1667 O1667     17.981173    14.572275     6.771899 O    1 RES 0.0000
  1668 O1668     -4.809673     1.400775    19.571101 O    1 RES 0.0000
  1669 O1669     -4.809673    27.743775    19.571101 O    1 RES 0.0000
  1670 O1670     21.533327     1.400775    19.571101 O    1 RES 0.0000
  1671 O1671     21.533327    27.743775    19.571101 O    1 RES 0.0000
  1672 O1672     -4.809673    -1.400775     6.771899 O    1 RES 0.0000
  1673 O1673     -4.809673    24.942225     6.771899 O    1 RES 0.0000
  1674 O1674     21.533327    -1.400775     6.771899 O    1 RES 0.0000
  1675 O1675     21.533327    24.942225     6.771899 O    1 RES 0.0000
  1676 O1676     17.981173    11.770725    19.571101 O    1 RES 0.0000
  1677 O1677     14.572275     6.771899    17.981173 O    1 RES 0.0000
  1678 O1678     14.572275    19.571101     8.361827 O    1 RES 0.0000
  1679 O1679     -1.400775    19.943399     8.361827 O    1 RES 0.0000
  1680 O1680     24.942225    19.943399     8.361827 O    1 RES 0.0000
  1681 O1681     -1.400775     6.399601    17.981173 O    1 RES 0.0000
  1682 O1682     24.942225     6.399601    17.981173 O    1 RES 0.0000
  1683 O1683     19.943399     4.809673    14.572275 O    1 RES 0.0000
  1684 O1684     19.943399    31.152673    14.572275 O    1 RES 0.0000
  1685 O1685     19.571101     8.361827    14.572275 O    1 RES 0.0000
  1686 O1686     19.943399    -4.809673    11.770725 O    1 RES 0.0000
  1687 O1687     19.943399    21.533327    11.770725 O    1 RES 0.0000
  1688 O1688     19.571101    17.981173    11.770725 O    1 RES 0.0000
  1689 O1689     19.943399    -1.400775    17.981173 O    1 RES 0.0000
  1690 O1690     19.943399    24.942225    17.981173 O    1 RES 0.0000
  1691 O1691     19.571101    11.770725     8.361827 O    1 RES 0.0000
  1692 O1692     19.943399     1.400775     8.361827 O    1 RES 0.0000
  1693 O1693     19.943399    27.743775     8.361827 O    1 RES 0.0000
  1694 O1694     19.571101    14.572275    17.981173 O    1 RES 0.0000
  1695 O1695     17.981173    19.571101    14.572275 O    1 RES 0.0000
  1696 O1696     -4.809673    19.943399    14.572275 O    1 RES 0.0000
  1697 O1697     21.533327    19.943399    14.572275 O    1 RES 0.0000
  1698 O1698     -4.809673     6.399601    11.770725 O    1 RES 0.0000
  1699 O1699     21.533327     6.399601    11.770725 O    1 RES 0.0000
  1700 O1700     17.981173     6.771899    11.770725 O    1 RES 0.0000
  1701 O1701     14.572275     8.361827     6.771899 O    1 RES 0.0000
  1702 O1702     14.572275    17.981173    19.571101 O    1 RES 0.0000
  1703 O1703     -1.400775     4.809673     6.771899 O    1 RES 0.0000
  1704 O1704     -1.400775    31.152673     6.771899 O    1 RES 0.0000
  1705 O1705     24.942225     4.809673     6.771899 O    1 RES 0.0000
  1706 O1706     24.942225    31.152673     6.771899 O    1 RES 0.0000
  1707 O1707     -1.400775    -4.809673    19.571101 O    1 RES 0.0000
  1708 O1708     -1.400775    21.533327    19.571101 O    1 RES 0.0000
  1709 O1709     24.942225    -4.809673    19.571101 O    1 RES 0.0000
  1710 O1710     24.942225    21.533327    19.571101 O    1 RES 0.0000
  1711 O1711     -4.809673    -1.400775    19.571101 O    1 RES 0.0000
  1712 O1712     -4.809673    24.942225    19.571101 O    1 RES 0.0000
  1713 O1713     21.533327    -1.400775    19.571101 O    1 RES 0.0000
  1714 O1714     21.533327    24.942225    19.571101 O    1 RES 0.0000
  1715 O1715     17.981173    11.770725     6.771899 O    1 RES 0.0000
  1716 O1716     17.981173    14.572275    19.571101 O    1 RES 0.0000
  1717 O1717     -4.809673     1.400775     6.771899 O    1 RES 0.0000
  1718 O1718     -4.809673    27.743775     6.771899 O    1 RES 0.0000
  1719 O1719     21.533327     1.400775     6.771899 O    1 RES 0.0000
  1720 O1720     21.533327    27.743775     6.771899 O    1 RES 0.0000
  1721 O1721     -1.400775     6.399601     8.361827 O    1 RES 0.0000
  1722 O1722     24.942225     6.399601     8.361827 O    1 RES 0.0000
  1723 O1723     -1.400775    19.943399    17.981173 O    1 RES 0.0000
  1724 O1724     24.942225    19.943399    17.981173 O    1 RES 0.0000
  1725 O1725     14.572275    19.571101    17.981173 O    1 RES 0.0000
  1726 O1726     14.572275     6.771899     8.361827 O    1 RES 0.0000
  1727 O1727     19.571101     8.361827    11.770725 O    1 RES 0.0000
  1728 O1728     19.943399     4.809673    11.770725 O    1 RES 0.0000
  1729 O1729     19.943399    31.152673    11.770725 O    1 RES 0.0000
  1730 O1730     19.571101    17.981173    14.572275 O    1 RES 0.0000
  1731 O1731     19.943399    -4.809673    14.572275 O    1 RES 0.0000
  1732 O1732     19.943399    21.533327    14.572275 O    1 RES 0.0000
  1733 O1733     19.571101    14.572275     8.361827 O    1 RES 0.0000
  1734 O1734     19.943399     1.400775    17.981173 O    1 RES 0.0000
  1735 O1735     19.943399    27.743775    17.981173 O    1 RES 0.0000
  1736 O1736     19.571101    11.770725    17.981173 O    1 RES 0.0000
  1737 O1737     19.943399    -1.400775     8.361827 O    1 RES 0.0000
  1738 O1738     19.943399    24.942225     8.361827 O    1 RES 0.0000
  1739 O1739     -4.809673    19.943399    11.770725 O    1 RES 0.0000
  1740 O1740     21.533327    19.943399    11.770725 O    1 RES 0.0000
  1741 O1741     17.981173    19.571101    11.770725 O    1 RES 0.0000
  1742 O1742     17.981173     6.771899    14.572275 O    1 RES 0.0000
  1743 O1743     -4.809673     6.399601    14.572275 O    1 RES 0.0000
  1744 O1744     21.533327     6.399601    14.572275 O    1 RES 0.0000
  1745 O1745     -1.400775     4.809673    19.571101 O    1 RES 0.0000
  1746 O1746     -1.400775    31.152673    19.571101 O    1 RES 0.0000
  1747 O1747     24.942225     4.809673    19.571101 O    1 RES 0.0000
  1748 O1748     24.942225    31.152673    19.571101 O    1 RES 0.0000
  1749 O1749     -1.400775    -4.809673     6.771899 O    1 RES 0.0000
  1750 O1750     -1.400775    21.533327     6.771899 O    1 RES 0.0000
  1751 O1751     24.942225    -4.809673     6.771899 O    1 RES 0.0000
  1752 O1752     24.942225    21.533327     6.771899 O    1 RES 0.0000
  1753 O1753     14.572275     8.361827    19.571101 O    1 RES 0.0000
  1754 O1754     14.572275    17.981173     6.771899 O    1 RES 0.0000
  1755 O1755      4.809673     1.400775     6.771899 O    1 RES 0.0000
  1756 O1756      4.809673    27.743775     6.771899 O    1 RES 0.0000
  1757 O1757     31.152673     1.400775     6.771899 O    1 RES 0.0000
  1758 O1758     31.152673    27.743775     6.771899 O    1 RES 0.0000
  1759 O1759      8.361827    14.572275    19.571101 O    1 RES 0.0000
  1760 O1760      8.361827    11.770725     6.771899 O    1 RES 0.0000
  1761 O1761      4.809673    -1.400775    19.571101 O    1 RES 0.0000
  1762 O1762      4.809673    24.942225    19.571101 O    1 RES 0.0000
  1763 O1763     31.152673    -1.400775    19.571101 O    1 RES 0.0000
  1764 O1764     31.152673    24.942225    19.571101 O    1 RES 0.0000
  1765 O1765      1.400775    19.943399    17.981173 O    1 RES 0.0000
  1766 O1766     27.743775    19.943399    17.981173 O    1 RES 0.0000
  1767 O1767      1.400775     6.399601     8.361827 O    1 RES 0.0000
  1768 O1768     27.743775     6.399601     8.361827 O    1 RES 0.0000
  1769 O1769     11.770725     6.771899     8.361827 O    1 RES 0.0000
  1770 O1770     11.770725    19.571101    17.981173 O    1 RES 0.0000
  1771 O1771      6.771899    17.981173    14.572275 O    1 RES 0.0000
  1772 O1772      6.399601    -4.809673    14.572275 O    1 RES 0.0000
  1773 O1773      6.399601    21.533327    14.572275 O    1 RES 0.0000
  1774 O1774      6.771899     8.361827    11.770725 O    1 RES 0.0000
  1775 O1775      6.399601     4.809673    11.770725 O    1 RES 0.0000
  1776 O1776      6.399601    31.152673    11.770725 O    1 RES 0.0000
  1777 O1777      6.771899    11.770725    17.981173 O    1 RES 0.0000
  1778 O1778      6.399601    -1.400775     8.361827 O    1 RES 0.0000
  1779 O1779      6.399601    24.942225     8.361827 O    1 RES 0.0000
  1780 O1780      6.771899    14.572275     8.361827 O    1 RES 0.0000
  1781 O1781      6.399601     1.400775    17.981173 O    1 RES 0.0000
  1782 O1782      6.399601    27.743775    17.981173 O    1 RES 0.0000
  1783 O1783      4.809673     6.399601    14.572275 O    1 RES 0.0000
  1784 O1784     31.152673     6.399601    14.572275 O    1 RES 0.0000
  1785 O1785      8.361827     6.771899    14.572275 O    1 RES 0.0000
  1786 O1786      8.361827    19.571101    11.770725 O    1 RES 0.0000
  1787 O1787      4.809673    19.943399    11.770725 O    1 RES 0.0000
  1788 O1788     31.152673    19.943399    11.770725 O    1 RES 0.0000
  1789 O1789      1.400775    -4.809673     6.771899 O    1 RES 0.0000
  1790 O1790      1.400775    21.533327     6.771899 O    1 RES 0.0000
  1791 O1791     27.743775    -4.809673     6.771899 O    1 RES 0.0000
  1792 O1792     27.743775    21.533327     6.771899 O    1 RES 0.0000
  1793 O1793      1.400775     4.809673    19.571101 O    1 RES 0.0000
  1794 O1794      1.400775    31.152673    19.571101 O    1 RES 0.0000
  1795 O1795     27.743775     4.809673    19.571101 O    1 RES 0.0000
  1796 O1796     27.743775    31.152673    19.571101 O    1 RES 0.0000
  1797 O1797     11.770725    17.981173     6.771899 O    1 RES 0.0000
  1798 O1798     11.770725     8.361827    19.571101 O    1 RES 0.0000
  1799 O1799      8.361827    11.770725    19.571101 O    1 RES 0.0000
  1800 O1800      4.809673    -1.400775     6.771899 O    1 RES 0.0000
  1801 O1801      4.809673    24.942225     6.771899 O    1 RES 0.0000
  1802 O1802     31.152673    -1.400775     6.771899 O    1 RES 0.0000
  1803 O1803     31.152673    24.942225     6.771899 O    1 RES 0.0000
  1804 O1804      4.809673     1.400775    19.571101 O    1 RES 0.0000
  1805 O1805      4.809673    27.743775    19.571101 O    1 RES 0.0000
  1806 O1806     31.152673     1.400775    19.571101 O    1 RES 0.0000
  1807 O1807     31.152673    27.743775    19.571101 O    1 RES 0.0000
  1808 O1808      8.361827    14.572275     6.771899 O    1 RES 0.0000
  1809 O1809     11.770725    19.571101     8.361827 O    1 RES 0.0000
  1810 O1810     11.770725     6.771899    17.981173 O    1 RES 0.0000
  1811 O1811      1.400775     6.399601    17.981173 O    1 RES 0.0000
  1812 O1812     27.743775     6.399601    17.981173 O    1 RES 0.0000
  1813 O1813      1.400775    19.943399     8.361827 O    1 RES 0.0000
  1814 O1814     27.743775    19.943399     8.361827 O    1 RES 0.0000
  1815 O1815      6.399601    -4.809673    11.770725 O    1 RES 0.0000
  1816 O1816      6.399601    21.533327    11.770725 O    1 RES 0.0000
  1817 O1817      6.771899    17.981173    11.770725 O    1 RES 0.0000
  1818 O1818      6.399601     4.809673    14.572275 O    1 RES 0.0000
  1819 O1819      6.399601    31.152673    14.572275 O    1 RES 0.0000
  1820 O1820      6.771899     8.361827    14.572275 O    1 RES 0.0000
  1821 O1821      6.399601     1.400775     8.361827 O    1 RES 0.0000
  1822 O1822      6.399601    27.743775     8.361827 O    1 RES 0.0000
  1823 O1823      6.771899    14.572275    17.981173 O    1 RES 0.0000
  1824 O1824      6.399601    -1.400775    17.981173 O    1 RES 0.0000
  1825 O1825      6.399601    24.942225    17.981173 O    1 RES 0.0000
  1826 O1826      6.771899    11.770725     8.361827 O    1 RES 0.0000
  1827 O1827      8.361827     6.771899    11.770725 O    1 RES 0.0000
  1828 O1828      4.809673     6.399601    11.770725 O    1 RES 0.0000
  1829 O1829     31.152673     6.399601    11.770725 O    1 RES 0.0000
  1830 O1830      4.809673    19.943399    14.572275 O    1 RES 0.0000
  1831 O1831     31.152673    19.943399    14.572275 O    1 RES 0.0000
  1832 O1832      8.361827    19.571101    14.572275 O    1 RES 0.0000
  1833 O1833     11.770725    17.981173    19.571101 O    1 RES 0.0000
  1834 O1834     11.770725     8.361827     6.771899 O    1 RES 0.0000
  1835 O1835      1.400775    -4.809673    19.571101 O    1 RES 0.0000
  1836 O1836      1.400775    21.533327    19.571101 O    1 RES 0.0000
  1837 O1837     27.743775    -4.809673    19.571101 O    1 RES 0.0000
  1838 O1838     27.743775    21.533327    19.571101 O    1 RES 0.0000
  1839 O1839      1.400775     4.809673     6.771899 O    1 RES 0.0000
  1840 O1840      1.400775    31.152673     6.771899 O    1 RES 0.0000
  1841 O1841     27.743775     4.809673     6.771899 O    1 RES 0.0000
  1842 O1842     27.743775    31.152673     6.771899 O    1 RES 0.0000
  1843 O1843      4.809673    14.572275    19.943399 O    1 RES 0.0000
  1844 O1844     31.152673    14.572275    19.943399 O    1 RES 0.0000
  1845 O1845      8.361827     1.400775     6.399601 O    1 RES 0.0000
  1846 O1846      8.361827    27.743775     6.399601 O    1 RES 0.0000
  1847 O1847      8.361827    -1.400775    19.943399 O    1 RES 0.0000
  1848 O1848      8.361827    24.942225    19.943399 O    1 RES 0.0000
  1849 O1849      4.809673    11.770725     6.399601 O    1 RES 0.0000
  1850 O1850     31.152673    11.770725     6.399601 O    1 RES 0.0000
  1851 O1851      1.400775     6.771899     4.809673 O    1 RES 0.0000
  1852 O1852      1.400775     6.771899    31.152673 O    1 RES 0.0000
  1853 O1853     27.743775     6.771899     4.809673 O    1 RES 0.0000
  1854 O1854     27.743775     6.771899    31.152673 O    1 RES 0.0000
  1855 O1855      1.400775    19.571101    -4.809673 O    1 RES 0.0000
  1856 O1856      1.400775    19.571101    21.533327 O    1 RES 0.0000
  1857 O1857     27.743775    19.571101    -4.809673 O    1 RES 0.0000
  1858 O1858     27.743775    19.571101    21.533327 O    1 RES 0.0000
  1859 O1859     11.770725    19.943399    -4.809673 O    1 RES 0.0000
  1860 O1860     11.770725    19.943399    21.533327 O    1 RES 0.0000
  1861 O1861     11.770725     6.399601     4.809673 O    1 RES 0.0000
  1862 O1862     11.770725     6.399601    31.152673 O    1 RES 0.0000
  1863 O1863      6.771899     4.809673     1.400775 O    1 RES 0.0000
  1864 O1864      6.771899     4.809673    27.743775 O    1 RES 0.0000
  1865 O1865      6.771899    31.152673     1.400775 O    1 RES 0.0000
  1866 O1866      6.771899    31.152673    27.743775 O    1 RES 0.0000
  1867 O1867      6.399601     8.361827     1.400775 O    1 RES 0.0000
  1868 O1868      6.399601     8.361827    27.743775 O    1 RES 0.0000
  1869 O1869      6.771899    -4.809673    -1.400775 O    1 RES 0.0000
  1870 O1870      6.771899    -4.809673    24.942225 O    1 RES 0.0000
  1871 O1871      6.771899    21.533327    -1.400775 O    1 RES 0.0000
  1872 O1872      6.771899    21.533327    24.942225 O    1 RES 0.0000
  1873 O1873      6.399601    17.981173    -1.400775 O    1 RES 0.0000
  1874 O1874      6.399601    17.981173    24.942225 O    1 RES 0.0000
  1875 O1875      6.771899    -1.400775     4.809673 O    1 RES 0.0000
  1876 O1876      6.771899    -1.400775    31.152673 O    1 RES 0.0000
  1877 O1877      6.771899    24.942225     4.809673 O    1 RES 0.0000
  1878 O1878      6.771899    24.942225    31.152673 O    1 RES 0.0000
  1879 O1879      6.399601    11.770725    -4.809673 O    1 RES 0.0000
  1880 O1880      6.399601    11.770725    21.533327 O    1 RES 0.0000
  1881 O1881      6.771899     1.400775    -4.809673 O    1 RES 0.0000
  1882 O1882      6.771899     1.400775    21.533327 O    1 RES 0.0000
  1883 O1883      6.771899    27.743775    -4.809673 O    1 RES 0.0000
  1884 O1884      6.771899    27.743775    21.533327 O    1 RES 0.0000
  1885 O1885      6.399601    14.572275     4.809673 O    1 RES 0.0000
  1886 O1886      6.399601    14.572275    31.152673 O    1 RES 0.0000
  1887 O1887      4.809673    19.571101     1.400775 O    1 RES 0.0000
  1888 O1888      4.809673    19.571101    27.743775 O    1 RES 0.0000
  1889 O1889     31.152673    19.571101     1.400775 O    1 RES 0.0000
  1890 O1890     31.152673    19.571101    27.743775 O    1 RES 0.0000
  1891 O1891      8.361827    19.943399     1.400775 O    1 RES 0.0000
  1892 O1892      8.361827    19.943399    27.743775 O    1 RES 0.0000
  1893 O1893      8.361827     6.399601    -1.400775 O    1 RES 0.0000
  1894 O1894      8.361827     6.399601    24.942225 O    1 RES 0.0000
  1895 O1895      4.809673     6.771899    -1.400775 O    1 RES 0.0000
  1896 O1896      4.809673     6.771899    24.942225 O    1 RES 0.0000
  1897 O1897     31.152673     6.771899    -1.400775 O    1 RES 0.0000
  1898 O1898     31.152673     6.771899    24.942225 O    1 RES 0.0000
  1899 O1899      1.400775     8.361827    19.943399 O    1 RES 0.0000
  1900 O1900     27.743775     8.361827    19.943399 O    1 RES 0.0000
  1901 O1901      1.400775    17.981173     6.399601 O    1 RES 0.0000
  1902 O1902     27.743775    17.981173     6.399601 O    1 RES 0.0000
  1903 O1903     11.770725     4.809673    19.943399 O    1 RES 0.0000
  1904 O1904     11.770725    31.152673    19.943399 O    1 RES 0.0000
  1905 O1905     11.770725    -4.809673     6.399601 O    1 RES 0.0000
  1906 O1906     11.770725    21.533327     6.399601 O    1 RES 0.0000
  1907 O1907      8.361827    -1.400775     6.399601 O    1 RES 0.0000
  1908 O1908      8.361827    24.942225     6.399601 O    1 RES 0.0000
  1909 O1909      4.809673    11.770725    19.943399 O    1 RES 0.0000
  1910 O1910     31.152673    11.770725    19.943399 O    1 RES 0.0000
  1911 O1911      4.809673    14.572275     6.399601 O    1 RES 0.0000
  1912 O1912     31.152673    14.572275     6.399601 O    1 RES 0.0000
  1913 O1913      8.361827     1.400775    19.943399 O    1 RES 0.0000
  1914 O1914      8.361827    27.743775    19.943399 O    1 RES 0.0000
  1915 O1915     11.770725     6.399601    -4.809673 O    1 RES 0.0000
  1916 O1916     11.770725     6.399601    21.533327 O    1 RES 0.0000
  1917 O1917     11.770725    19.943399     4.809673 O    1 RES 0.0000
  1918 O1918     11.770725    19.943399    31.152673 O    1 RES 0.0000
  1919 O1919      1.400775    19.571101     4.809673 O    1 RES 0.0000
  1920 O1920      1.400775    19.571101    31.152673 O    1 RES 0.0000
  1921 O1921     27.743775    19.571101     4.809673 O    1 RES 0.0000
  1922 O1922     27.743775    19.571101    31.152673 O    1 RES 0.0000
  1923 O1923      1.400775     6.771899    -4.809673 O    1 RES 0.0000
  1924 O1924      1.400775     6.771899    21.533327 O    1 RES 0.0000
  1925 O1925     27.743775     6.771899    -4.809673 O    1 RES 0.0000
  1926 O1926     27.743775     6.771899    21.533327 O    1 RES 0.0000
  1927 O1927      6.399601     8.361827    -1.400775 O    1 RES 0.0000
  1928 O1928      6.399601     8.361827    24.942225 O    1 RES 0.0000
  1929 O1929      6.771899     4.809673    -1.400775 O    1 RES 0.0000
  1930 O1930      6.771899     4.809673    24.942225 O    1 RES 0.0000
  1931 O1931      6.771899    31.152673    -1.400775 O    1 RES 0.0000
  1932 O1932      6.771899    31.152673    24.942225 O    1 RES 0.0000
  1933 O1933      6.399601    17.981173     1.400775 O    1 RES 0.0000
  1934 O1934      6.399601    17.981173    27.743775 O    1 RES 0.0000
  1935 O1935      6.771899    -4.809673     1.400775 O    1 RES 0.0000
  1936 O1936      6.771899    -4.809673    27.743775 O    1 RES 0.0000
  1937 O1937      6.771899    21.533327     1.400775 O    1 RES 0.0000
  1938 O1938      6.771899    21.533327    27.743775 O    1 RES 0.0000
  1939 O1939      6.399601    14.572275    -4.809673 O    1 RES 0.0000
  1940 O1940      6.399601    14.572275    21.533327 O    1 RES 0.0000
  1941 O1941      6.771899     1.400775     4.809673 O    1 RES 0.0000
  1942 O1942      6.771899     1.400775    31.152673 O    1 RES 0.0000
  1943 O1943      6.771899    27.743775     4.809673 O    1 RES 0.0000
  1944 O1944      6.771899    27.743775    31.152673 O    1 RES 0.0000
  1945 O1945      6.399601    11.770725     4.809673 O    1 RES 0.0000
  1946 O1946      6.399601    11.770725    31.152673 O    1 RES 0.0000
  1947 O1947      6.771899    -1.400775    -4.809673 O    1 RES 0.0000
  1948 O1948      6.771899    -1.400775    21.533327 O    1 RES 0.0000
  1949 O1949      6.771899    24.942225    -4.809673 O    1 RES 0.0000
  1950 O1950      6.771899    24.942225    21.533327 O    1 RES 0.0000
  1951 O1951      8.361827    19.943399    -1.400775 O    1 RES 0.0000
  1952 O1952      8.361827    19.943399    24.942225 O    1 RES 0.0000
  1953 O1953      4.809673    19.571101    -1.400775 O    1 RES 0.0000
  1954 O1954      4.809673    19.571101    24.942225 O    1 RES 0.0000
  1955 O1955     31.152673    19.571101    -1.400775 O    1 RES 0.0000
  1956 O1956     31.152673    19.571101    24.942225 O    1 RES 0.0000
  1957 O1957      4.809673     6.771899     1.400775 O    1 RES 0.0000
  1958 O1958      4.809673     6.771899    27.743775 O    1 RES 0.0000
  1959 O1959     31.152673     6.771899     1.400775 O    1 RES 0.0000
  1960 O1960     31.152673     6.771899    27.743775 O    1 RES 0.0000
  1961 O1961      8.361827     6.399601     1.400775 O    1 RES 0.0000
  1962 O1962      8.361827     6.399601    27.743775 O    1 RES 0.0000
  1963 O1963     11.770725     4.809673     6.399601 O    1 RES 0.0000
  1964 O1964     11.770725    31.152673     6.399601 O    1 RES 0.0000
  1965 O1965     11.770725    -4.809673    19.943399 O    1 RES 0.0000
  1966 O1966     11.770725    21.533327    19.943399 O    1 RES 0.0000
  1967 O1967      1.400775     8.361827     6.399601 O    1 RES 0.0000
  1968 O1968     27.743775     8.361827     6.399601 O    1 RES 0.0000
  1969 O1969      1.400775    17.981173    19.943399 O    1 RES 0.0000
  1970 O1970     27.743775    17.981173    19.943399 O    1 RES 0.0000
@<TRIPOS>BOND
     1      1   1539 1
     2      1   1605 1
     3      1   1689 1
     4      1   1734 1
     5      2   1540 1
     6      2   1606 1
     7      2   1690 1
     8      2   1735 1
     9      3   1541 1
    10      3   1603 1
    11      4   1542 1
    12      4   1604 1
    13      4   1691 1
    14      4   1733 1
    15      5   1672 1
    16      5   1717 1
    17      7   1673 1
    18      7   1718 1
    19      9   1579 1
    20      9   1641 1
    21      9   1674 1
    22      9   1719 1
    23     10   1580 1
    24     10   1642 1
    25     11   1581 1
    26     11   1643 1
    27     11   1675 1
    28     11   1720 1
    29     12   1582 1
    30     12   1644 1
    31     13   1545 1
    32     13   1607 1
    33     13   1692 1
    34     13   1737 1
    35     14   1546 1
    36     14   1608 1
    37     14   1693 1
    38     14   1738 1
    39     15   1547 1
    40     15   1754 1
    41     15   1797 1
    42     15   1917 1
    43     16   1548 1
    44     16   1918 1
    45     17   1601 1
    46     17   1721 1
    47     17   1767 1
    48     17   1967 1
    49     18   1602 1
    50     18   1722 1
    51     18   1768 1
    52     18   1968 1
    53     19   1551 1
    54     19   1923 1
    55     20   1552 1
    56     20   1745 1
    57     20   1793 1
    58     20   1924 1
    59     22   1746 1
    60     22   1794 1
    61     23   1553 1
    62     23   1925 1
    63     24   1554 1
    64     24   1747 1
    65     24   1795 1
    66     24   1926 1
    67     26   1748 1
    68     26   1796 1
    69     27   1661 1
    70     27   1681 1
    71     27   1811 1
    72     27   1899 1
    73     28   1662 1
    74     28   1682 1
    75     28   1812 1
    76     28   1900 1
    77     29   1559 1
    78     29   1593 1
    79     29   1627 1
    80     29   1653 1
    81     30   1560 1
    82     30   1594 1
    83     30   1628 1
    84     30   1654 1
    85     31   1698 1
    86     31   1743 1
    87     32   1685 1
    88     32   1699 1
    89     32   1727 1
    90     32   1744 1
    91     33   1565 1
    92     33   1583 1
    93     33   1633 1
    94     33   1651 1
    95     34   1566 1
    96     34   1584 1
    97     34   1634 1
    98     34   1652 1
    99     35   1585 1
   100     35   1647 1
   101     36   1586 1
   102     36   1648 1
   103     39   1567 1
   104     39   1587 1
   105     39   1629 1
   106     39   1649 1
   107     40   1568 1
   108     40   1588 1
   109     40   1630 1
   110     40   1650 1
   111     41   1569 1
   112     41   1631 1
   113     42   1570 1
   114     42   1632 1
   115     43   1571 1
   116     43   1639 1
   117     43   1667 1
   118     43   1715 1
   119     44   1572 1
   120     44   1640 1
   121     46   1668 1
   122     46   1711 1
   123     48   1669 1
   124     48   1712 1
   125     49   1573 1
   126     49   1635 1
   127     50   1574 1
   128     50   1636 1
   129     50   1670 1
   130     50   1713 1
   131     51   1575 1
   132     51   1637 1
   133     52   1576 1
   134     52   1638 1
   135     52   1671 1
   136     52   1714 1
   137     53   1543 1
   138     53   1609 1
   139     54   1544 1
   140     54   1610 1
   141     54   1694 1
   142     54   1736 1
   143     55   1577 1
   144     55   1645 1
   145     56   1578 1
   146     56   1646 1
   147     56   1676 1
   148     56   1716 1
   149     57   1665 1
   150     57   1677 1
   151     57   1810 1
   152     57   1903 1
   153     58   1666 1
   154     58   1904 1
   155     60   1707 1
   156     60   1835 1
   157     61   1611 1
   158     61   1855 1
   159     62   1612 1
   160     62   1708 1
   161     62   1836 1
   162     62   1856 1
   163     64   1709 1
   164     64   1837 1
   165     65   1613 1
   166     65   1857 1
   167     66   1614 1
   168     66   1710 1
   169     66   1838 1
   170     66   1858 1
   171     67   1659 1
   172     67   1679 1
   173     67   1813 1
   174     67   1901 1
   175     68   1660 1
   176     68   1680 1
   177     68   1814 1
   178     68   1902 1
   179     69   1749 1
   180     69   1789 1
   181     71   1555 1
   182     71   1750 1
   183     71   1790 1
   184     71   1919 1
   185     72   1556 1
   186     72   1920 1
   187     73   1751 1
   188     73   1791 1
   189     75   1557 1
   190     75   1752 1
   191     75   1792 1
   192     75   1921 1
   193     76   1558 1
   194     76   1922 1
   195     77   1683 1
   196     77   1700 1
   197     77   1728 1
   198     77   1742 1
   199     78   1684 1
   200     78   1729 1
   201     81   1589 1
   202     81   1655 1
   203     82   1590 1
   204     82   1656 1
   205     83   1561 1
   206     83   1623 1
   207     84   1562 1
   208     84   1624 1
   209     85   1563 1
   210     85   1591 1
   211     85   1625 1
   212     85   1657 1
   213     86   1564 1
   214     86   1592 1
   215     86   1626 1
   216     86   1658 1
   217     87   1686 1
   218     87   1731 1
   219     88   1687 1
   220     88   1695 1
   221     88   1732 1
   222     88   1741 1
   223     89   1696 1
   224     89   1739 1
   225     90   1688 1
   226     90   1697 1
   227     90   1730 1
   228     90   1740 1
   229     91   1755 1
   230     91   1800 1
   231     91   1875 1
   232     91   1941 1
   233     92   1876 1
   234     92   1942 1
   235     93   1756 1
   236     93   1801 1
   237     93   1877 1
   238     93   1943 1
   239     94   1878 1
   240     94   1944 1
   241     95   1757 1
   242     95   1802 1
   243     97   1758 1
   244     97   1803 1
   245     99   1879 1
   246     99   1939 1
   247    100   1759 1
   248    100   1799 1
   249    100   1880 1
   250    100   1940 1
   251    101   1781 1
   252    101   1824 1
   253    101   1847 1
   254    101   1913 1
   255    102   1782 1
   256    102   1825 1
   257    102   1848 1
   258    102   1914 1
   259    103   1881 1
   260    103   1947 1
   261    104   1761 1
   262    104   1804 1
   263    104   1882 1
   264    104   1948 1
   265    105   1883 1
   266    105   1949 1
   267    106   1762 1
   268    106   1805 1
   269    106   1884 1
   270    106   1950 1
   271    108   1763 1
   272    108   1806 1
   273    110   1764 1
   274    110   1807 1
   275    111   1599 1
   276    111   1723 1
   277    111   1765 1
   278    111   1969 1
   279    112   1600 1
   280    112   1724 1
   281    112   1766 1
   282    112   1970 1
   283    113   1549 1
   284    113   1915 1
   285    114   1550 1
   286    114   1753 1
   287    114   1798 1
   288    114   1916 1
   289    115   1597 1
   290    115   1726 1
   291    115   1769 1
   292    115   1963 1
   293    116   1598 1
   294    116   1964 1
   295    117   1619 1
   296    117   1701 1
   297    117   1834 1
   298    117   1861 1
   299    118   1620 1
   300    118   1862 1
   301    119   1771 1
   302    119   1787 1
   303    119   1817 1
   304    119   1830 1
   305    120   1788 1
   306    120   1831 1
   307    121   1867 1
   308    121   1893 1
   309    121   1927 1
   310    121   1961 1
   311    122   1868 1
   312    122   1894 1
   313    122   1928 1
   314    122   1962 1
   315    123   1774 1
   316    123   1783 1
   317    123   1820 1
   318    123   1828 1
   319    124   1784 1
   320    124   1829 1
   321    125   1775 1
   322    125   1785 1
   323    125   1818 1
   324    125   1827 1
   325    126   1776 1
   326    126   1819 1
   327    127   1777 1
   328    127   1823 1
   329    127   1843 1
   330    127   1909 1
   331    128   1844 1
   332    128   1910 1
   333    129   1778 1
   334    129   1821 1
   335    129   1845 1
   336    129   1907 1
   337    130   1779 1
   338    130   1822 1
   339    130   1846 1
   340    130   1908 1
   341    131   1760 1
   342    131   1808 1
   343    131   1885 1
   344    131   1945 1
   345    132   1886 1
   346    132   1946 1
   347    133   1780 1
   348    133   1826 1
   349    133   1849 1
   350    133   1911 1
   351    134   1850 1
   352    134   1912 1
   353    135   1615 1
   354    135   1703 1
   355    135   1839 1
   356    135   1851 1
   357    136   1616 1
   358    136   1852 1
   359    137   1704 1
   360    137   1840 1
   361    139   1617 1
   362    139   1705 1
   363    139   1841 1
   364    139   1853 1
   365    140   1618 1
   366    140   1854 1
   367    141   1706 1
   368    141   1842 1
   369    143   1663 1
   370    143   1905 1
   371    144   1664 1
   372    144   1678 1
   373    144   1809 1
   374    144   1906 1
   375    145   1621 1
   376    145   1859 1
   377    146   1622 1
   378    146   1702 1
   379    146   1833 1
   380    146   1860 1
   381    147   1595 1
   382    147   1965 1
   383    148   1596 1
   384    148   1725 1
   385    148   1770 1
   386    148   1966 1
   387    149   1863 1
   388    149   1895 1
   389    149   1929 1
   390    149   1957 1
   391    150   1864 1
   392    150   1896 1
   393    150   1930 1
   394    150   1958 1
   395    151   1865 1
   396    151   1931 1
   397    152   1866 1
   398    152   1932 1
   399    153   1897 1
   400    153   1959 1
   401    154   1898 1
   402    154   1960 1
   403    157   1772 1
   404    157   1815 1
   405    158   1773 1
   406    158   1786 1
   407    158   1816 1
   408    158   1832 1
   409    159   1869 1
   410    159   1935 1
   411    160   1870 1
   412    160   1936 1
   413    161   1871 1
   414    161   1887 1
   415    161   1937 1
   416    161   1953 1
   417    162   1872 1
   418    162   1888 1
   419    162   1938 1
   420    162   1954 1
   421    165   1889 1
   422    165   1955 1
   423    166   1890 1
   424    166   1956 1
   425    167   1873 1
   426    167   1891 1
   427    167   1933 1
   428    167   1951 1
   429    168   1874 1
   430    168   1892 1
   431    168   1934 1
   432    168   1952 1
   433    169    741 1
   434    170    742 1
   435    171    743 1
   436    172    744 1
   437    173    747 1
   438    174    748 1
   439    175    749 1
   440    176    750 1
   441    177    751 1
   442    178    752 1
   443    179    753 1
   444    180    754 1
   445    181    757 1
   446    182    758 1
   447    183    759 1
   448    184    760 1
   449    185    761 1
   450    186    762 1
   451    187    765 1
   452    188    766 1
   453    189    767 1
   454    190    768 1
   455    191    769 1
   456    192    770 1
   457    193    787 1
   458    194    788 1
   459    195    791 1
   460    196    792 1
   461    197    793 1
   462    198    794 1
   463    199    795 1
   464    200    796 1
   465    201    797 1
   466    202    798 1
   467    203    801 1
   468    204    802 1
   469    205    804 1
   470    206    806 1
   471    207    807 1
   472    208    809 1
   473    209    812 1
   474    210    814 1
   475    211    815 1
   476    212    817 1
   477    213    949 1
   478    214    950 1
   479    215    952 1
   480    216    954 1
   481    217    955 1
   482    218    957 1
   483    219    961 1
   484    220    962 1
   485    221    963 1
   486    222    966 1
   487    223    967 1
   488    224    968 1
   489    225    979 1
   490    226    981 1
   491    227    983 1
   492    228    984 1
   493    229    986 1
   494    230    988 1
   495    231    989 1
   496    232    990 1
   497    233    991 1
   498    234    992 1
   499    235    993 1
   500    236    994 1
   501    237    995 1
   502    238    996 1
   503    239    997 1
   504    240    998 1
   505    241   1130 1
   506    242   1132 1
   507    243   1133 1
   508    244   1135 1
   509    245   1137 1
   510    246   1138 1
   511    247   1139 1
   512    248   1140 1
   513    249   1141 1
   514    250   1144 1
   515    251   1145 1
   516    252   1146 1
   517    253   1159 1
   518    254   1161 1
   519    255   1163 1
   520    256   1164 1
   521    257   1166 1
   522    258   1168 1
   523    259   1169 1
   524    260   1170 1
   525    261   1171 1
   526    262   1172 1
   527    263   1173 1
   528    264   1174 1
   529    265   1175 1
   530    266   1176 1
   531    267   1177 1
   532    268   1178 1
   533    269   1387 1
   534    270   1388 1
   535    271   1389 1
   536    272   1390 1
   537    273   1391 1
   538    274   1392 1
   539    275   1393 1
   540    276   1394 1
   541    277   1397 1
   542    278   1398 1
   543    279   1399 1
   544    280   1400 1
   545    281   1403 1
   546    282   1404 1
   547    283   1405 1
   548    284   1406 1
   549    285   1407 1
   550    286   1408 1
   551    287   1411 1
   552    288   1412 1
   553    289   1413 1
   554    290   1414 1
   555    291   1415 1
   556    292   1416 1
   557    293   1435 1
   558    294   1436 1
   559    295   1437 1
   560    296   1438 1
   561    297   1441 1
   562    298   1442 1
   563    299   1443 1
   564    300   1444 1
   565    301   1447 1
   566    302   1448 1
   567    303   1449 1
   568    304   1450 1
   569    305   1452 1
   570    306   1454 1
   571    307   1455 1
   572    308   1457 1
   573    309   1460 1
   574    310   1462 1
   575    311   1463 1
   576    312   1465 1
   577    313   1467 1
   578    314   1468 1
   579    315   1467 1
   580    316   1468 1
   581    317   1467 1
   582    318   1468 1
   583    319   1469 1
   584    320   1470 1
   585    321   1469 1
   586    322   1470 1
   587    323   1469 1
   588    324   1470 1
   589    325   1471 1
   590    326   1472 1
   591    327   1471 1
   592    328   1472 1
   593    329   1471 1
   594    330   1472 1
   595    331   1473 1
   596    332   1474 1
   597    333   1473 1
   598    334   1474 1
   599    335   1473 1
   600    336   1474 1
   601    337   1475 1
   602    338   1476 1
   603    339   1475 1
   604    340   1476 1
   605    341   1475 1
   606    342   1476 1
   607    343   1477 1
   608    344   1478 1
   609    345   1479 1
   610    346   1480 1
   611    347   1477 1
   612    348   1478 1
   613    349   1479 1
   614    350   1480 1
   615    351   1477 1
   616    352   1478 1
   617    353   1479 1
   618    354   1480 1
   619    355   1481 1
   620    356   1482 1
   621    357   1481 1
   622    358   1482 1
   623    359   1481 1
   624    360   1482 1
   625    361   1483 1
   626    362   1484 1
   627    363   1485 1
   628    364   1486 1
   629    365   1483 1
   630    366   1484 1
   631    367   1485 1
   632    368   1486 1
   633    369   1483 1
   634    370   1484 1
   635    371   1485 1
   636    372   1486 1
   637    373   1487 1
   638    374   1487 1
   639    375   1487 1
   640    376   1488 1
   641    377   1489 1
   642    378   1490 1
   643    379   1491 1
   644    380   1488 1
   645    381   1489 1
   646    382   1490 1
   647    383   1491 1
   648    384   1488 1
   649    385   1489 1
   650    386   1490 1
   651    387   1491 1
   652    388   1492 1
   653    389   1493 1
   654    390   1494 1
   655    391   1495 1
   656    392   1492 1
   657    393   1493 1
   658    394   1494 1
   659    395   1495 1
   660    396   1492 1
   661    397   1493 1
   662    398   1494 1
   663    399   1495 1
   664    400   1496 1
   665    401   1496 1
   666    402   1496 1
   667    403   1497 1
   668    404   1498 1
   669    405   1497 1
   670    406   1498 1
   671    407   1497 1
   672    408   1498 1
   673    409   1499 1
   674    410   1499 1
   675    411   1499 1
   676    412   1500 1
   677    413   1501 1
   678    414   1500 1
   679    415   1501 1
   680    416   1500 1
   681    417   1501 1
   682    418   1502 1
   683    419   1502 1
   684    420   1502 1
   685    421   1503 1
   686    422   1504 1
   687    423   1505 1
   688    424   1506 1
   689    425   1503 1
   690    426   1504 1
   691    427   1505 1
   692    428   1506 1
   693    429   1503 1
   694    430   1504 1
   695    431   1505 1
   696    432   1506 1
   697    433   1507 1
   698    434   1507 1
   699    435   1507 1
   700    436   1508 1
   701    437   1508 1
   702    438   1508 1
   703    439   1509 1
   704    440   1510 1
   705    441   1511 1
   706    442   1512 1
   707    443   1509 1
   708    444   1510 1
   709    445   1511 1
   710    446   1512 1
   711    447   1509 1
   712    448   1510 1
   713    449   1511 1
   714    450   1512 1
   715    451   1513 1
   716    452   1513 1
   717    453   1513 1
   718    454   1514 1
   719    455   1515 1
   720    456   1514 1
   721    457   1515 1
   722    458   1514 1
   723    459   1515 1
   724    460   1516 1
   725    461   1516 1
   726    462   1516 1
   727    463   1517 1
   728    464   1518 1
   729    465   1517 1
   730    466   1518 1
   731    467   1517 1
   732    468   1518 1
   733    469   1519 1
   734    470   1520 1
   735    471   1519 1
   736    472   1520 1
   737    473   1519 1
   738    474   1520 1
   739    475   1521 1
   740    476   1522 1
   741    477   1521 1
   742    478   1522 1
   743    479   1521 1
   744    481   1522 1
   745    483   1523 1
   746    484   1524 1
   747    485   1523 1
   748    486   1524 1
   749    487   1523 1
   750    488   1524 1
   751    489   1525 1
   752    490   1526 1
   753    491   1525 1
   754    492   1526 1
   755    493   1525 1
   756    494   1526 1
   757    495   1527 1
   758    496   1528 1
   759    497   1529 1
   760    498   1530 1
   761    499   1527 1
   762    500   1528 1
   763    501   1529 1
   764    502   1530 1
   765    503   1527 1
   766    504   1528 1
   767    505   1529 1
   768    506   1530 1
   769    507   1531 1
   770    508   1532 1
   771    509   1531 1
   772    510   1532 1
   773    511   1531 1
   774    512   1532 1
   775    513   1533 1
   776    514   1534 1
   777    515   1535 1
   778    516   1536 1
   779    517   1533 1
   780    518   1534 1
   781    519   1535 1
   782    520   1536 1
   783    521   1533 1
   784    522   1534 1
   785    523   1535 1
   786    524   1536 1
   787    525   1537 1
   788    526   1538 1
   789    527   1537 1
   790    528   1538 1
   791    529   1537 1
   792    530   1538 1
   793    531    627 1
   794    531   1635 1
   795    532    628 1
   796    532   1539 1
   797    532   1636 1
   798    533    629 1
   799    533   1637 1
   800    534    630 1
   801    534   1540 1
   802    534   1638 1
   803    535    631 1
   804    535   1541 1
   805    536    632 1
   806    537    633 1
   807    537   1542 1
   808    537   1639 1
   809    538    634 1
   810    538   1640 1
   811    539    635 1
   812    540    636 1
   813    540   1543 1
   814    541    637 1
   815    541   1645 1
   816    542    638 1
   817    542   1544 1
   818    542   1646 1
   819    543    639 1
   820    543   1545 1
   821    543   1641 1
   822    544    640 1
   823    544   1642 1
   824    545    641 1
   825    545   1546 1
   826    545   1643 1
   827    546    642 1
   828    546   1644 1
   829    547    643 1
   830    547   1663 1
   831    548    644 1
   832    549    645 1
   833    549   1547 1
   834    549   1664 1
   835    550    646 1
   836    550   1548 1
   837    551    647 1
   838    551   1549 1
   839    552    648 1
   840    552   1550 1
   841    552   1665 1
   842    553    649 1
   843    554    650 1
   844    554   1666 1
   845    555    651 1
   846    555   1551 1
   847    556    652 1
   848    556   1552 1
   849    556   1661 1
   850    557    653 1
   851    557   1553 1
   852    558    654 1
   853    558   1554 1
   854    558   1662 1
   855    559    655 1
   856    559   1555 1
   857    559   1659 1
   858    560    656 1
   859    560   1556 1
   860    561    657 1
   861    561   1557 1
   862    561   1660 1
   863    562    658 1
   864    562   1558 1
   865    563    659 1
   866    563   1655 1
   867    564    660 1
   868    564   1656 1
   869    565    661 1
   870    565   1559 1
   871    565   1657 1
   872    566    662 1
   873    566   1560 1
   874    566   1658 1
   875    567    663 1
   876    567   1561 1
   877    568    664 1
   878    568   1562 1
   879    569    665 1
   880    569   1563 1
   881    569   1653 1
   882    570    666 1
   883    570   1564 1
   884    570   1654 1
   885    571    667 1
   886    571   1647 1
   887    572    668 1
   888    572   1648 1
   889    573    669 1
   890    573   1565 1
   891    573   1649 1
   892    574    670 1
   893    574   1566 1
   894    574   1650 1
   895    575    671 1
   896    575   1567 1
   897    575   1651 1
   898    576    672 1
   899    576   1568 1
   900    576   1652 1
   901    577    673 1
   902    577   1569 1
   903    578    674 1
   904    578   1570 1
   905    579    675 1
   906    579   1603 1
   907    580    676 1
   908    581    677 1
   909    581   1571 1
   910    581   1604 1
   911    582    678 1
   912    582   1572 1
   913    583    679 1
   914    583   1573 1
   915    584    680 1
   916    584   1574 1
   917    584   1605 1
   918    585    681 1
   919    585   1575 1
   920    586    682 1
   921    586   1576 1
   922    586   1606 1
   923    587    683 1
   924    588    684 1
   925    588   1609 1
   926    589    685 1
   927    589   1577 1
   928    590    686 1
   929    590   1578 1
   930    590   1610 1
   931    591    687 1
   932    591   1579 1
   933    591   1607 1
   934    592    688 1
   935    592   1580 1
   936    593    689 1
   937    593   1581 1
   938    593   1608 1
   939    594    690 1
   940    594   1582 1
   941    595    691 1
   942    595   1583 1
   943    595   1629 1
   944    596    692 1
   945    596   1584 1
   946    596   1630 1
   947    597    693 1
   948    597   1631 1
   949    598    694 1
   950    598   1632 1
   951    599    695 1
   952    599   1585 1
   953    600    696 1
   954    600   1586 1
   955    601    697 1
   956    601   1587 1
   957    601   1633 1
   958    602    698 1
   959    602   1588 1
   960    602   1634 1
   961    603    699 1
   962    603   1589 1
   963    604    700 1
   964    604   1590 1
   965    605    701 1
   966    605   1591 1
   967    605   1627 1
   968    606    702 1
   969    606   1592 1
   970    606   1628 1
   971    607    703 1
   972    607   1623 1
   973    608    704 1
   974    608   1624 1
   975    609    705 1
   976    609   1593 1
   977    609   1625 1
   978    610    706 1
   979    610   1594 1
   980    610   1626 1
   981    611    707 1
   982    612    708 1
   983    612   1595 1
   984    613    709 1
   985    613   1621 1
   986    614    710 1
   987    614   1596 1
   988    614   1622 1
   989    615    711 1
   990    615   1597 1
   991    615   1619 1
   992    616    712 1
   993    616   1620 1
   994    617    713 1
   995    617   1598 1
   996    618    714 1
   997    619    715 1
   998    619   1611 1
   999    620    716 1
  1000    620   1599 1
  1001    620   1612 1
  1002    621    717 1
  1003    621   1613 1
  1004    622    718 1
  1005    622   1600 1
  1006    622   1614 1
  1007    623    719 1
  1008    623   1601 1
  1009    623   1615 1
  1010    624    720 1
  1011    624   1616 1
  1012    625    721 1
  1013    625   1602 1
  1014    625   1617 1
  1015    626    722 1
  1016    626   1618 1
  1017    627    723 1
  1018    627    767 1
  1019    628    724 1
  1020    628    768 1
  1021    629    725 1
  1022    629    769 1
  1023    630    726 1
  1024    630    770 1
  1025    631    727 1
  1026    631    755 1
  1027    632    728 1
  1028    632    756 1
  1029    633    729 1
  1030    633    757 1
  1031    634    730 1
  1032    634    758 1
  1033    635    731 1
  1034    635    763 1
  1035    636    732 1
  1036    636    764 1
  1037    637    733 1
  1038    637    765 1
  1039    638    734 1
  1040    638    766 1
  1041    639    735 1
  1042    639    759 1
  1043    640    736 1
  1044    640    760 1
  1045    641    737 1
  1046    641    761 1
  1047    642    738 1
  1048    642    762 1
  1049    643    735 1
  1050    643    739 1
  1051    644    736 1
  1052    644    740 1
  1053    645    737 1
  1054    645    741 1
  1055    646    738 1
  1056    646    742 1
  1057    647    723 1
  1058    647    743 1
  1059    648    724 1
  1060    648    744 1
  1061    649    725 1
  1062    649    745 1
  1063    650    726 1
  1064    650    746 1
  1065    651    731 1
  1066    651    747 1
  1067    652    732 1
  1068    652    748 1
  1069    653    733 1
  1070    653    749 1
  1071    654    734 1
  1072    654    750 1
  1073    655    727 1
  1074    655    751 1
  1075    656    728 1
  1076    656    752 1
  1077    657    729 1
  1078    657    753 1
  1079    658    730 1
  1080    658    754 1
  1081    659    751 1
  1082    659    755 1
  1083    660    752 1
  1084    660    756 1
  1085    661    753 1
  1086    661    757 1
  1087    662    754 1
  1088    662    758 1
  1089    663    739 1
  1090    663    759 1
  1091    664    740 1
  1092    664    760 1
  1093    665    741 1
  1094    665    761 1
  1095    666    742 1
  1096    666    762 1
  1097    667    747 1
  1098    667    763 1
  1099    668    748 1
  1100    668    764 1
  1101    669    749 1
  1102    669    765 1
  1103    670    750 1
  1104    670    766 1
  1105    671    743 1
  1106    671    767 1
  1107    672    744 1
  1108    672    768 1
  1109    673    745 1
  1110    673    769 1
  1111    674    746 1
  1112    674    770 1
  1113    675    771 1
  1114    675    815 1
  1115    676    772 1
  1116    676    816 1
  1117    677    773 1
  1118    677    817 1
  1119    678    774 1
  1120    678    818 1
  1121    679    775 1
  1122    679    803 1
  1123    680    776 1
  1124    680    804 1
  1125    681    777 1
  1126    681    805 1
  1127    682    778 1
  1128    682    806 1
  1129    683    779 1
  1130    683    811 1
  1131    684    780 1
  1132    684    812 1
  1133    685    781 1
  1134    685    813 1
  1135    686    782 1
  1136    686    814 1
  1137    687    783 1
  1138    687    807 1
  1139    688    784 1
  1140    688    808 1
  1141    689    785 1
  1142    689    809 1
  1143    690    786 1
  1144    690    810 1
  1145    691    783 1
  1146    691    787 1
  1147    692    784 1
  1148    692    788 1
  1149    693    785 1
  1150    693    789 1
  1151    694    786 1
  1152    694    790 1
  1153    695    771 1
  1154    695    791 1
  1155    696    772 1
  1156    696    792 1
  1157    697    773 1
  1158    697    793 1
  1159    698    774 1
  1160    698    794 1
  1161    699    779 1
  1162    699    795 1
  1163    700    780 1
  1164    700    796 1
  1165    701    781 1
  1166    701    797 1
  1167    702    782 1
  1168    702    798 1
  1169    703    775 1
  1170    703    799 1
  1171    704    776 1
  1172    704    800 1
  1173    705    777 1
  1174    705    801 1
  1175    706    778 1
  1176    706    802 1
  1177    707    799 1
  1178    707    803 1
  1179    708    800 1
  1180    708    804 1
  1181    709    801 1
  1182    709    805 1
  1183    710    802 1
  1184    710    806 1
  1185    711    787 1
  1186    711    807 1
  1187    712    788 1
  1188    712    808 1
  1189    713    789 1
  1190    713    809 1
  1191    714    790 1
  1192    714    810 1
  1193    715    795 1
  1194    715    811 1
  1195    716    796 1
  1196    716    812 1
  1197    717    797 1
  1198    717    813 1
  1199    718    798 1
  1200    718    814 1
  1201    719    791 1
  1202    719    815 1
  1203    720    792 1
  1204    720    816 1
  1205    721    793 1
  1206    721    817 1
  1207    722    794 1
  1208    722    818 1
  1209    724   1467 1
  1210    726   1468 1
  1211    727   1469 1
  1212    729   1470 1
  1213    732   1471 1
  1214    734   1472 1
  1215    735   1473 1
  1216    737   1474 1
  1217    773   1475 1
  1218    774   1476 1
  1219    775   1477 1
  1220    776   1478 1
  1221    777   1479 1
  1222    778   1480 1
  1223    781   1481 1
  1224    782   1482 1
  1225    783   1483 1
  1226    784   1484 1
  1227    785   1485 1
  1228    786   1486 1
  1229    819    879 1
  1230    819   1667 1
  1231    819   1733 1
  1232    820    880 1
  1233    820   1668 1
  1234    821    881 1
  1235    821   1669 1
  1236    822    882 1
  1237    822   1670 1
  1238    822   1734 1
  1239    823    883 1
  1240    823   1671 1
  1241    823   1735 1
  1242    824    884 1
  1243    824   1672 1
  1244    825    885 1
  1245    825   1673 1
  1246    826    886 1
  1247    826   1674 1
  1248    826   1737 1
  1249    827    887 1
  1250    827   1675 1
  1251    827   1738 1
  1252    828    888 1
  1253    828   1676 1
  1254    828   1736 1
  1255    829    889 1
  1256    829   1677 1
  1257    829   1753 1
  1258    830    890 1
  1259    830   1678 1
  1260    830   1754 1
  1261    831    891 1
  1262    831   1749 1
  1263    832    892 1
  1264    832   1679 1
  1265    832   1750 1
  1266    833    893 1
  1267    833   1751 1
  1268    834    894 1
  1269    834   1680 1
  1270    834   1752 1
  1271    835    895 1
  1272    835   1681 1
  1273    835   1745 1
  1274    836    896 1
  1275    836   1746 1
  1276    837    897 1
  1277    837   1682 1
  1278    837   1747 1
  1279    838    898 1
  1280    838   1748 1
  1281    839    899 1
  1282    839   1743 1
  1283    840    900 1
  1284    841    901 1
  1285    841   1683 1
  1286    841   1744 1
  1287    842    902 1
  1288    842   1684 1
  1289    843    903 1
  1290    843   1685 1
  1291    843   1742 1
  1292    844    904 1
  1293    845    905 1
  1294    845   1739 1
  1295    846    906 1
  1296    846   1686 1
  1297    847    907 1
  1298    847   1687 1
  1299    847   1740 1
  1300    848    908 1
  1301    848   1688 1
  1302    848   1741 1
  1303    849    909 1
  1304    849   1711 1
  1305    850    910 1
  1306    850   1712 1
  1307    851    911 1
  1308    851   1689 1
  1309    851   1713 1
  1310    852    912 1
  1311    852   1690 1
  1312    852   1714 1
  1313    853    913 1
  1314    853   1691 1
  1315    853   1715 1
  1316    854    914 1
  1317    854   1717 1
  1318    855    915 1
  1319    855   1718 1
  1320    856    916 1
  1321    856   1692 1
  1322    856   1719 1
  1323    857    917 1
  1324    857   1693 1
  1325    857   1720 1
  1326    858    918 1
  1327    858   1694 1
  1328    858   1716 1
  1329    859    919 1
  1330    859   1695 1
  1331    859   1730 1
  1332    860    920 1
  1333    861    921 1
  1334    861   1696 1
  1335    862    922 1
  1336    862   1731 1
  1337    863    923 1
  1338    863   1697 1
  1339    863   1732 1
  1340    864    924 1
  1341    864   1698 1
  1342    865    925 1
  1343    866    926 1
  1344    866   1699 1
  1345    866   1728 1
  1346    867    927 1
  1347    867   1729 1
  1348    868    928 1
  1349    868   1700 1
  1350    868   1727 1
  1351    869    929 1
  1352    869   1701 1
  1353    869   1726 1
  1354    870    930 1
  1355    870   1702 1
  1356    870   1725 1
  1357    871    931 1
  1358    871   1703 1
  1359    871   1721 1
  1360    872    932 1
  1361    872   1704 1
  1362    873    933 1
  1363    873   1705 1
  1364    873   1722 1
  1365    874    934 1
  1366    874   1706 1
  1367    875    935 1
  1368    875   1707 1
  1369    876    936 1
  1370    876   1708 1
  1371    876   1723 1
  1372    877    937 1
  1373    877   1709 1
  1374    878    938 1
  1375    878   1710 1
  1376    878   1724 1
  1377    879    939 1
  1378    879    968 1
  1379    880    940 1
  1380    880    959 1
  1381    881    941 1
  1382    881    960 1
  1383    882    942 1
  1384    882    961 1
  1385    883    943 1
  1386    883    962 1
  1387    884    944 1
  1388    884    964 1
  1389    885    945 1
  1390    885    965 1
  1391    886    946 1
  1392    886    966 1
  1393    887    947 1
  1394    887    967 1
  1395    888    948 1
  1396    888    963 1
  1397    889    948 1
  1398    889    949 1
  1399    890    939 1
  1400    890    950 1
  1401    891    944 1
  1402    891    951 1
  1403    892    945 1
  1404    892    952 1
  1405    893    946 1
  1406    893    953 1
  1407    894    947 1
  1408    894    954 1
  1409    895    940 1
  1410    895    955 1
  1411    896    941 1
  1412    896    956 1
  1413    897    942 1
  1414    897    957 1
  1415    898    943 1
  1416    898    958 1
  1417    899    955 1
  1418    899    959 1
  1419    900    956 1
  1420    900    960 1
  1421    901    957 1
  1422    901    961 1
  1423    902    958 1
  1424    902    962 1
  1425    903    949 1
  1426    903    963 1
  1427    904    951 1
  1428    904    964 1
  1429    905    952 1
  1430    905    965 1
  1431    906    953 1
  1432    906    966 1
  1433    907    954 1
  1434    907    967 1
  1435    908    950 1
  1436    908    968 1
  1437    909    969 1
  1438    909    995 1
  1439    910    970 1
  1440    910    996 1
  1441    911    971 1
  1442    911    997 1
  1443    912    972 1
  1444    912    998 1
  1445    913    973 1
  1446    913    989 1
  1447    914    974 1
  1448    914    991 1
  1449    915    975 1
  1450    915    992 1
  1451    916    976 1
  1452    916    993 1
  1453    917    977 1
  1454    917    994 1
  1455    918    978 1
  1456    918    990 1
  1457    919    978 1
  1458    919    979 1
  1459    920    969 1
  1460    920    980 1
  1461    921    970 1
  1462    921    981 1
  1463    922    971 1
  1464    922    982 1
  1465    923    972 1
  1466    923    983 1
  1467    924    974 1
  1468    924    984 1
  1469    925    975 1
  1470    925    985 1
  1471    926    976 1
  1472    926    986 1
  1473    927    977 1
  1474    927    987 1
  1475    928    973 1
  1476    928    988 1
  1477    929    988 1
  1478    929    989 1
  1479    930    979 1
  1480    930    990 1
  1481    931    984 1
  1482    931    991 1
  1483    932    985 1
  1484    932    992 1
  1485    933    986 1
  1486    933    993 1
  1487    934    987 1
  1488    934    994 1
  1489    935    980 1
  1490    935    995 1
  1491    936    981 1
  1492    936    996 1
  1493    937    982 1
  1494    937    997 1
  1495    938    983 1
  1496    938    998 1
  1497    939   1487 1
  1498    940   1488 1
  1499    941   1489 1
  1500    942   1490 1
  1501    943   1491 1
  1502    944   1492 1
  1503    945   1493 1
  1504    946   1494 1
  1505    947   1495 1
  1506    948   1496 1
  1507    971   1497 1
  1508    972   1498 1
  1509    973   1499 1
  1510    976   1500 1
  1511    977   1501 1
  1512    978   1502 1
  1513    999   1059 1
  1514    999   1755 1
  1515    999   1821 1
  1516   1000   1060 1
  1517   1000   1756 1
  1518   1000   1822 1
  1519   1001   1061 1
  1520   1001   1757 1
  1521   1002   1062 1
  1522   1002   1758 1
  1523   1003   1063 1
  1524   1003   1759 1
  1525   1003   1823 1
  1526   1004   1064 1
  1527   1004   1760 1
  1528   1004   1826 1
  1529   1005   1065 1
  1530   1005   1761 1
  1531   1005   1824 1
  1532   1006   1066 1
  1533   1006   1762 1
  1534   1006   1825 1
  1535   1007   1067 1
  1536   1007   1763 1
  1537   1008   1068 1
  1538   1008   1764 1
  1539   1009   1069 1
  1540   1009   1835 1
  1541   1010   1070 1
  1542   1010   1765 1
  1543   1010   1836 1
  1544   1011   1071 1
  1545   1011   1837 1
  1546   1012   1072 1
  1547   1012   1766 1
  1548   1012   1838 1
  1549   1013   1073 1
  1550   1013   1767 1
  1551   1013   1839 1
  1552   1014   1074 1
  1553   1014   1840 1
  1554   1015   1075 1
  1555   1015   1768 1
  1556   1015   1841 1
  1557   1016   1076 1
  1558   1016   1842 1
  1559   1017   1077 1
  1560   1017   1769 1
  1561   1017   1834 1
  1562   1018   1078 1
  1563   1018   1770 1
  1564   1018   1833 1
  1565   1019   1079 1
  1566   1019   1771 1
  1567   1019   1832 1
  1568   1020   1080 1
  1569   1020   1772 1
  1570   1021   1081 1
  1571   1021   1773 1
  1572   1021   1830 1
  1573   1022   1082 1
  1574   1023   1083 1
  1575   1023   1831 1
  1576   1024   1084 1
  1577   1024   1774 1
  1578   1024   1827 1
  1579   1025   1085 1
  1580   1025   1775 1
  1581   1025   1828 1
  1582   1026   1086 1
  1583   1026   1776 1
  1584   1027   1087 1
  1585   1027   1829 1
  1586   1028   1088 1
  1587   1029   1089 1
  1588   1029   1777 1
  1589   1029   1799 1
  1590   1030   1090 1
  1591   1030   1778 1
  1592   1030   1800 1
  1593   1031   1091 1
  1594   1031   1779 1
  1595   1031   1801 1
  1596   1032   1092 1
  1597   1032   1802 1
  1598   1033   1093 1
  1599   1033   1803 1
  1600   1034   1094 1
  1601   1034   1780 1
  1602   1034   1808 1
  1603   1035   1095 1
  1604   1035   1781 1
  1605   1035   1804 1
  1606   1036   1096 1
  1607   1036   1782 1
  1608   1036   1805 1
  1609   1037   1097 1
  1610   1037   1806 1
  1611   1038   1098 1
  1612   1038   1807 1
  1613   1039   1099 1
  1614   1039   1783 1
  1615   1039   1818 1
  1616   1040   1100 1
  1617   1040   1819 1
  1618   1041   1101 1
  1619   1041   1784 1
  1620   1042   1102 1
  1621   1043   1103 1
  1622   1043   1785 1
  1623   1043   1820 1
  1624   1044   1104 1
  1625   1044   1786 1
  1626   1044   1817 1
  1627   1045   1105 1
  1628   1045   1815 1
  1629   1046   1106 1
  1630   1046   1787 1
  1631   1046   1816 1
  1632   1047   1107 1
  1633   1048   1108 1
  1634   1048   1788 1
  1635   1049   1109 1
  1636   1049   1789 1
  1637   1050   1110 1
  1638   1050   1790 1
  1639   1050   1813 1
  1640   1051   1111 1
  1641   1051   1791 1
  1642   1052   1112 1
  1643   1052   1792 1
  1644   1052   1814 1
  1645   1053   1113 1
  1646   1053   1793 1
  1647   1053   1811 1
  1648   1054   1114 1
  1649   1054   1794 1
  1650   1055   1115 1
  1651   1055   1795 1
  1652   1055   1812 1
  1653   1056   1116 1
  1654   1056   1796 1
  1655   1057   1117 1
  1656   1057   1797 1
  1657   1057   1809 1
  1658   1058   1118 1
  1659   1058   1798 1
  1660   1058   1810 1
  1661   1059   1119 1
  1662   1059   1145 1
  1663   1060   1120 1
  1664   1060   1146 1
  1665   1061   1121 1
  1666   1061   1147 1
  1667   1062   1122 1
  1668   1062   1148 1
  1669   1063   1123 1
  1670   1063   1139 1
  1671   1064   1124 1
  1672   1064   1144 1
  1673   1065   1125 1
  1674   1065   1140 1
  1675   1066   1126 1
  1676   1066   1141 1
  1677   1067   1127 1
  1678   1067   1142 1
  1679   1068   1128 1
  1680   1068   1143 1
  1681   1069   1125 1
  1682   1069   1129 1
  1683   1070   1126 1
  1684   1070   1130 1
  1685   1071   1127 1
  1686   1071   1131 1
  1687   1072   1128 1
  1688   1072   1132 1
  1689   1073   1119 1
  1690   1073   1133 1
  1691   1074   1120 1
  1692   1074   1134 1
  1693   1075   1121 1
  1694   1075   1135 1
  1695   1076   1122 1
  1696   1076   1136 1
  1697   1077   1124 1
  1698   1077   1137 1
  1699   1078   1123 1
  1700   1078   1138 1
  1701   1079   1138 1
  1702   1079   1139 1
  1703   1080   1129 1
  1704   1080   1140 1
  1705   1081   1130 1
  1706   1081   1141 1
  1707   1082   1131 1
  1708   1082   1142 1
  1709   1083   1132 1
  1710   1083   1143 1
  1711   1084   1137 1
  1712   1084   1144 1
  1713   1085   1133 1
  1714   1085   1145 1
  1715   1086   1134 1
  1716   1086   1146 1
  1717   1087   1135 1
  1718   1087   1147 1
  1719   1088   1136 1
  1720   1088   1148 1
  1721   1089   1149 1
  1722   1089   1178 1
  1723   1090   1150 1
  1724   1090   1169 1
  1725   1091   1151 1
  1726   1091   1170 1
  1727   1092   1152 1
  1728   1092   1171 1
  1729   1093   1153 1
  1730   1093   1172 1
  1731   1094   1154 1
  1732   1094   1177 1
  1733   1095   1155 1
  1734   1095   1173 1
  1735   1096   1156 1
  1736   1096   1174 1
  1737   1097   1157 1
  1738   1097   1175 1
  1739   1098   1158 1
  1740   1098   1176 1
  1741   1099   1155 1
  1742   1099   1159 1
  1743   1100   1156 1
  1744   1100   1160 1
  1745   1101   1157 1
  1746   1101   1161 1
  1747   1102   1158 1
  1748   1102   1162 1
  1749   1103   1149 1
  1750   1103   1163 1
  1751   1104   1154 1
  1752   1104   1164 1
  1753   1105   1150 1
  1754   1105   1165 1
  1755   1106   1151 1
  1756   1106   1166 1
  1757   1107   1152 1
  1758   1107   1167 1
  1759   1108   1153 1
  1760   1108   1168 1
  1761   1109   1165 1
  1762   1109   1169 1
  1763   1110   1166 1
  1764   1110   1170 1
  1765   1111   1167 1
  1766   1111   1171 1
  1767   1112   1168 1
  1768   1112   1172 1
  1769   1113   1159 1
  1770   1113   1173 1
  1771   1114   1160 1
  1772   1114   1174 1
  1773   1115   1161 1
  1774   1115   1175 1
  1775   1116   1162 1
  1776   1116   1176 1
  1777   1117   1164 1
  1778   1117   1177 1
  1779   1118   1163 1
  1780   1118   1178 1
  1781   1119   1503 1
  1782   1120   1504 1
  1783   1121   1505 1
  1784   1122   1506 1
  1785   1123   1507 1
  1786   1124   1508 1
  1787   1125   1509 1
  1788   1126   1510 1
  1789   1127   1511 1
  1790   1128   1512 1
  1791   1149   1513 1
  1792   1150   1514 1
  1793   1151   1515 1
  1794   1154   1516 1
  1795   1155   1517 1
  1796   1156   1518 1
  1797   1179   1275 1
  1798   1179   1939 1
  1799   1180   1276 1
  1800   1180   1843 1
  1801   1180   1940 1
  1802   1181   1277 1
  1803   1182   1278 1
  1804   1182   1844 1
  1805   1183   1279 1
  1806   1183   1845 1
  1807   1183   1941 1
  1808   1184   1280 1
  1809   1184   1942 1
  1810   1185   1281 1
  1811   1185   1846 1
  1812   1185   1943 1
  1813   1186   1282 1
  1814   1186   1944 1
  1815   1187   1283 1
  1816   1187   1947 1
  1817   1188   1284 1
  1818   1188   1847 1
  1819   1188   1948 1
  1820   1189   1285 1
  1821   1189   1949 1
  1822   1190   1286 1
  1823   1190   1848 1
  1824   1190   1950 1
  1825   1191   1287 1
  1826   1191   1849 1
  1827   1191   1945 1
  1828   1192   1288 1
  1829   1192   1946 1
  1830   1193   1289 1
  1831   1193   1850 1
  1832   1194   1290 1
  1833   1195   1291 1
  1834   1195   1851 1
  1835   1195   1967 1
  1836   1196   1292 1
  1837   1196   1852 1
  1838   1197   1293 1
  1839   1197   1853 1
  1840   1197   1968 1
  1841   1198   1294 1
  1842   1198   1854 1
  1843   1199   1295 1
  1844   1199   1855 1
  1845   1200   1296 1
  1846   1200   1856 1
  1847   1200   1969 1
  1848   1201   1297 1
  1849   1201   1857 1
  1850   1202   1298 1
  1851   1202   1858 1
  1852   1202   1970 1
  1853   1203   1299 1
  1854   1204   1300 1
  1855   1204   1965 1
  1856   1205   1301 1
  1857   1205   1859 1
  1858   1206   1302 1
  1859   1206   1860 1
  1860   1206   1966 1
  1861   1207   1303 1
  1862   1207   1861 1
  1863   1207   1963 1
  1864   1208   1304 1
  1865   1208   1862 1
  1866   1209   1305 1
  1867   1209   1964 1
  1868   1210   1306 1
  1869   1211   1307 1
  1870   1211   1863 1
  1871   1211   1961 1
  1872   1212   1308 1
  1873   1212   1864 1
  1874   1212   1962 1
  1875   1213   1309 1
  1876   1213   1865 1
  1877   1214   1310 1
  1878   1214   1866 1
  1879   1215   1311 1
  1880   1215   1867 1
  1881   1215   1957 1
  1882   1216   1312 1
  1883   1216   1868 1
  1884   1216   1958 1
  1885   1217   1313 1
  1886   1217   1959 1
  1887   1218   1314 1
  1888   1218   1960 1
  1889   1219   1315 1
  1890   1219   1869 1
  1891   1220   1316 1
  1892   1220   1870 1
  1893   1221   1317 1
  1894   1221   1871 1
  1895   1221   1951 1
  1896   1222   1318 1
  1897   1222   1872 1
  1898   1222   1952 1
  1899   1223   1319 1
  1900   1223   1873 1
  1901   1223   1953 1
  1902   1224   1320 1
  1903   1224   1874 1
  1904   1224   1954 1
  1905   1225   1321 1
  1906   1225   1955 1
  1907   1226   1322 1
  1908   1226   1956 1
  1909   1227   1323 1
  1910   1227   1875 1
  1911   1227   1907 1
  1912   1228   1324 1
  1913   1228   1876 1
  1914   1229   1325 1
  1915   1229   1877 1
  1916   1229   1908 1
  1917   1230   1326 1
  1918   1230   1878 1
  1919   1231   1327 1
  1920   1231   1879 1
  1921   1232   1328 1
  1922   1232   1880 1
  1923   1232   1909 1
  1924   1233   1329 1
  1925   1234   1330 1
  1926   1234   1910 1
  1927   1235   1331 1
  1928   1235   1881 1
  1929   1236   1332 1
  1930   1236   1882 1
  1931   1236   1913 1
  1932   1237   1333 1
  1933   1237   1883 1
  1934   1238   1334 1
  1935   1238   1884 1
  1936   1238   1914 1
  1937   1239   1335 1
  1938   1239   1885 1
  1939   1239   1911 1
  1940   1240   1336 1
  1941   1240   1886 1
  1942   1241   1337 1
  1943   1241   1912 1
  1944   1242   1338 1
  1945   1243   1339 1
  1946   1243   1887 1
  1947   1243   1933 1
  1948   1244   1340 1
  1949   1244   1888 1
  1950   1244   1934 1
  1951   1245   1341 1
  1952   1245   1889 1
  1953   1246   1342 1
  1954   1246   1890 1
  1955   1247   1343 1
  1956   1247   1935 1
  1957   1248   1344 1
  1958   1248   1936 1
  1959   1249   1345 1
  1960   1249   1891 1
  1961   1249   1937 1
  1962   1250   1346 1
  1963   1250   1892 1
  1964   1250   1938 1
  1965   1251   1347 1
  1966   1251   1893 1
  1967   1251   1929 1
  1968   1252   1348 1
  1969   1252   1894 1
  1970   1252   1930 1
  1971   1253   1349 1
  1972   1253   1931 1
  1973   1254   1350 1
  1974   1254   1932 1
  1975   1255   1351 1
  1976   1255   1895 1
  1977   1255   1927 1
  1978   1256   1352 1
  1979   1256   1896 1
  1980   1256   1928 1
  1981   1257   1353 1
  1982   1257   1897 1
  1983   1258   1354 1
  1984   1258   1898 1
  1985   1259   1355 1
  1986   1259   1923 1
  1987   1260   1356 1
  1988   1260   1899 1
  1989   1260   1924 1
  1990   1261   1357 1
  1991   1261   1925 1
  1992   1262   1358 1
  1993   1262   1900 1
  1994   1262   1926 1
  1995   1263   1359 1
  1996   1263   1901 1
  1997   1263   1919 1
  1998   1264   1360 1
  1999   1264   1920 1
  2000   1265   1361 1
  2001   1265   1902 1
  2002   1265   1921 1
  2003   1266   1362 1
  2004   1266   1922 1
  2005   1267   1363 1
  2006   1267   1915 1
  2007   1268   1364 1
  2008   1268   1903 1
  2009   1268   1916 1
  2010   1269   1365 1
  2011   1270   1366 1
  2012   1270   1904 1
  2013   1271   1367 1
  2014   1271   1905 1
  2015   1272   1368 1
  2016   1273   1369 1
  2017   1273   1906 1
  2018   1273   1917 1
  2019   1274   1370 1
  2020   1274   1918 1
  2021   1275   1371 1
  2022   1275   1415 1
  2023   1276   1372 1
  2024   1276   1416 1
  2025   1277   1373 1
  2026   1277   1417 1
  2027   1278   1374 1
  2028   1278   1418 1
  2029   1279   1375 1
  2030   1279   1403 1
  2031   1280   1376 1
  2032   1280   1404 1
  2033   1281   1377 1
  2034   1281   1405 1
  2035   1282   1378 1
  2036   1282   1406 1
  2037   1283   1379 1
  2038   1283   1411 1
  2039   1284   1380 1
  2040   1284   1412 1
  2041   1285   1381 1
  2042   1285   1413 1
  2043   1286   1382 1
  2044   1286   1414 1
  2045   1287   1383 1
  2046   1287   1407 1
  2047   1288   1384 1
  2048   1288   1408 1
  2049   1289   1385 1
  2050   1289   1409 1
  2051   1290   1386 1
  2052   1290   1410 1
  2053   1291   1383 1
  2054   1291   1387 1
  2055   1292   1384 1
  2056   1292   1388 1
  2057   1293   1385 1
  2058   1293   1389 1
  2059   1294   1386 1
  2060   1294   1390 1
  2061   1295   1371 1
  2062   1295   1391 1
  2063   1296   1372 1
  2064   1296   1392 1
  2065   1297   1373 1
  2066   1297   1393 1
  2067   1298   1374 1
  2068   1298   1394 1
  2069   1299   1379 1
  2070   1299   1395 1
  2071   1300   1380 1
  2072   1300   1396 1
  2073   1301   1381 1
  2074   1301   1397 1
  2075   1302   1382 1
  2076   1302   1398 1
  2077   1303   1375 1
  2078   1303   1399 1
  2079   1304   1376 1
  2080   1304   1400 1
  2081   1305   1377 1
  2082   1305   1401 1
  2083   1306   1378 1
  2084   1306   1402 1
  2085   1307   1399 1
  2086   1307   1403 1
  2087   1308   1400 1
  2088   1308   1404 1
  2089   1309   1401 1
  2090   1309   1405 1
  2091   1310   1402 1
  2092   1310   1406 1
  2093   1311   1387 1
  2094   1311   1407 1
  2095   1312   1388 1
  2096   1312   1408 1
  2097   1313   1389 1
  2098   1313   1409 1
  2099   1314   1390 1
  2100   1314   1410 1
  2101   1315   1395 1
  2102   1315   1411 1
  2103   1316   1396 1
  2104   1316   1412 1
  2105   1317   1397 1
  2106   1317   1413 1
  2107   1318   1398 1
  2108   1318   1414 1
  2109   1319   1391 1
  2110   1319   1415 1
  2111   1320   1392 1
  2112   1320   1416 1
  2113   1321   1393 1
  2114   1321   1417 1
  2115   1322   1394 1
  2116   1322   1418 1
  2117   1323   1419 1
  2118   1323   1463 1
  2119   1324   1420 1
  2120   1324   1464 1
  2121   1325   1421 1
  2122   1325   1465 1
  2123   1326   1422 1
  2124   1326   1466 1
  2125   1327   1423 1
  2126   1327   1451 1
  2127   1328   1424 1
  2128   1328   1452 1
  2129   1329   1425 1
  2130   1329   1453 1
  2131   1330   1426 1
  2132   1330   1454 1
  2133   1331   1427 1
  2134   1331   1459 1
  2135   1332   1428 1
  2136   1332   1460 1
  2137   1333   1429 1
  2138   1333   1461 1
  2139   1334   1430 1
  2140   1334   1462 1
  2141   1335   1431 1
  2142   1335   1455 1
  2143   1336   1432 1
  2144   1336   1456 1
  2145   1337   1433 1
  2146   1337   1457 1
  2147   1338   1434 1
  2148   1338   1458 1
  2149   1339   1431 1
  2150   1339   1435 1
  2151   1340   1432 1
  2152   1340   1436 1
  2153   1341   1433 1
  2154   1341   1437 1
  2155   1342   1434 1
  2156   1342   1438 1
  2157   1343   1419 1
  2158   1343   1439 1
  2159   1344   1420 1
  2160   1344   1440 1
  2161   1345   1421 1
  2162   1345   1441 1
  2163   1346   1422 1
  2164   1346   1442 1
  2165   1347   1427 1
  2166   1347   1443 1
  2167   1348   1428 1
  2168   1348   1444 1
  2169   1349   1429 1
  2170   1349   1445 1
  2171   1350   1430 1
  2172   1350   1446 1
  2173   1351   1423 1
  2174   1351   1447 1
  2175   1352   1424 1
  2176   1352   1448 1
  2177   1353   1425 1
  2178   1353   1449 1
  2179   1354   1426 1
  2180   1354   1450 1
  2181   1355   1447 1
  2182   1355   1451 1
  2183   1356   1448 1
  2184   1356   1452 1
  2185   1357   1449 1
  2186   1357   1453 1
  2187   1358   1450 1
  2188   1358   1454 1
  2189   1359   1435 1
  2190   1359   1455 1
  2191   1360   1436 1
  2192   1360   1456 1
  2193   1361   1437 1
  2194   1361   1457 1
  2195   1362   1438 1
  2196   1362   1458 1
  2197   1363   1443 1
  2198   1363   1459 1
  2199   1364   1444 1
  2200   1364   1460 1
  2201   1365   1445 1
  2202   1365   1461 1
  2203   1366   1446 1
  2204   1366   1462 1
  2205   1367   1439 1
  2206   1367   1463 1
  2207   1368   1440 1
  2208   1368   1464 1
  2209   1369   1441 1
  2210   1369   1465 1
  2211   1370   1442 1
  2212   1370   1466 1
  2213   1372   1519 1
  2214   1374   1520 1
  2215   1375   1521 1
  2216   1377   1522 1
  2217   1380   1523 1
  2218   1382   1524 1
  2219   1383   1525 1
  2220   1385   1526 1
  2221   1419   1527 1
  2222   1420   1528 1
  2223   1421   1529 1
  2224   1422   1530 1
  2225   1423   1531 1
  2226   1424   1532 1
  2227   1427   1533 1
  2228   1428   1534 1
  2229   1429   1535 1
  2230   1430   1536 1
  2231   1431   1537 1
  2232   1432   1538 1
