@<TRIPOS>MOLECULE
cu_nh2_btc_tbo
1896 2160 0 0 0
SMALL
NO_CHARGES

@<TRIPOS>ATOM
     1 Cu1        18.829468    -0.000000    18.829463 Cu   1 RES 0.0000
     2 Cu2        18.829468    26.343000    18.829463 Cu   1 RES 0.0000
     3 Cu3        -5.658029    13.171496     7.513471 Cu   1 RES 0.0000
     4 Cu4        20.684971    13.171496     7.513471 Cu   1 RES 0.0000
     5 Cu5        -5.658000    -0.000001     5.658005 Cu   1 RES 0.0000
     6 Cu6        -5.658000    -0.000001    32.001005 Cu   1 RES 0.0000
     7 Cu7        -5.658000    26.342999     5.658005 Cu   1 RES 0.0000
     8 Cu8        -5.658000    26.342999    32.001005 Cu   1 RES 0.0000
     9 Cu9        20.685000    -0.000001     5.658005 Cu   1 RES 0.0000
    10 Cu10       20.685000    -0.000001    32.001005 Cu   1 RES 0.0000
    11 Cu11       20.685000    26.342999     5.658005 Cu   1 RES 0.0000
    12 Cu12       20.685000    26.342999    32.001005 Cu   1 RES 0.0000
    13 Cu13       18.829469    -0.000000     7.513535 Cu   1 RES 0.0000
    14 Cu14       18.829469    26.343000     7.513535 Cu   1 RES 0.0000
    15 Cu15       13.209302    18.841875     5.615403 Cu   1 RES 0.0000
    16 Cu16       13.209302    18.841875    31.958403 Cu   1 RES 0.0000
    17 Cu17        0.037803     7.501129     7.556113 Cu   1 RES 0.0000
    18 Cu18       26.380803     7.501129     7.556113 Cu   1 RES 0.0000
    19 Cu19       -0.037794     5.670418    -5.615445 Cu   1 RES 0.0000
    20 Cu20       -0.037794     5.670418    20.727555 Cu   1 RES 0.0000
    21 Cu21       -0.037794    32.013418    -5.615445 Cu   1 RES 0.0000
    22 Cu22       -0.037794    32.013418    20.727555 Cu   1 RES 0.0000
    23 Cu23       26.305206     5.670418    -5.615445 Cu   1 RES 0.0000
    24 Cu24       26.305206     5.670418    20.727555 Cu   1 RES 0.0000
    25 Cu25       26.305206    32.013418    -5.615445 Cu   1 RES 0.0000
    26 Cu26       26.305206    32.013418    20.727555 Cu   1 RES 0.0000
    27 Cu27       -0.037798     7.501190    18.786828 Cu   1 RES 0.0000
    28 Cu28       26.305202     7.501190    18.786828 Cu   1 RES 0.0000
    29 Cu29       18.786858    18.841843    -0.037799 Cu   1 RES 0.0000
    30 Cu30       18.786858    18.841843    26.305201 Cu   1 RES 0.0000
    31 Cu31       -5.615393     7.501136    13.133702 Cu   1 RES 0.0000
    32 Cu32       20.727607     7.501136    13.133702 Cu   1 RES 0.0000
    33 Cu33       18.786827     7.501189     0.037802 Cu   1 RES 0.0000
    34 Cu34       18.786827     7.501189    26.380802 Cu   1 RES 0.0000
    35 Cu35       -5.615451     5.670420     0.037803 Cu   1 RES 0.0000
    36 Cu36       -5.615451     5.670420    26.380803 Cu   1 RES 0.0000
    37 Cu37       -5.615451    32.013420     0.037803 Cu   1 RES 0.0000
    38 Cu38       -5.615451    32.013420    26.380803 Cu   1 RES 0.0000
    39 Cu39       20.727549     5.670420     0.037803 Cu   1 RES 0.0000
    40 Cu40       20.727549     5.670420    26.380803 Cu   1 RES 0.0000
    41 Cu41       20.727549    32.013420     0.037803 Cu   1 RES 0.0000
    42 Cu42       20.727549    32.013420    26.380803 Cu   1 RES 0.0000
    43 Cu43       18.829453    13.171498     5.657953 Cu   1 RES 0.0000
    44 Cu44       18.829453    13.171498    32.000953 Cu   1 RES 0.0000
    45 Cu45       -5.658025    -0.000001    -5.658028 Cu   1 RES 0.0000
    46 Cu46       -5.658025    -0.000001    20.684972 Cu   1 RES 0.0000
    47 Cu47       -5.658025    26.342999    -5.658028 Cu   1 RES 0.0000
    48 Cu48       -5.658025    26.342999    20.684972 Cu   1 RES 0.0000
    49 Cu49       20.684975    -0.000001    -5.658028 Cu   1 RES 0.0000
    50 Cu50       20.684975    -0.000001    20.684972 Cu   1 RES 0.0000
    51 Cu51       20.684975    26.342999    -5.658028 Cu   1 RES 0.0000
    52 Cu52       20.684975    26.342999    20.684972 Cu   1 RES 0.0000
    53 Cu53       -5.657980    13.171499    18.829479 Cu   1 RES 0.0000
    54 Cu54       20.685020    13.171499    18.829479 Cu   1 RES 0.0000
    55 Cu55       18.829496    13.171499    -5.657998 Cu   1 RES 0.0000
    56 Cu56       18.829496    13.171499    20.685002 Cu   1 RES 0.0000
    57 Cu57       13.209295     5.670357    18.786878 Cu   1 RES 0.0000
    58 Cu58       13.209295    32.013357    18.786878 Cu   1 RES 0.0000
    59 Cu59        0.037806    -5.670382    -5.615397 Cu   1 RES 0.0000
    60 Cu60        0.037806    -5.670382    20.727603 Cu   1 RES 0.0000
    61 Cu61        0.037806    20.672618    -5.615397 Cu   1 RES 0.0000
    62 Cu62        0.037806    20.672618    20.727603 Cu   1 RES 0.0000
    63 Cu63       26.380806    -5.670382    -5.615397 Cu   1 RES 0.0000
    64 Cu64       26.380806    -5.670382    20.727603 Cu   1 RES 0.0000
    65 Cu65       26.380806    20.672618    -5.615397 Cu   1 RES 0.0000
    66 Cu66       26.380806    20.672618    20.727603 Cu   1 RES 0.0000
    67 Cu67       -0.037798    18.841913     7.556058 Cu   1 RES 0.0000
    68 Cu68       26.305202    18.841913     7.556058 Cu   1 RES 0.0000
    69 Cu69       -0.037794    -5.670314     5.615329 Cu   1 RES 0.0000
    70 Cu70       -0.037794    -5.670314    31.958329 Cu   1 RES 0.0000
    71 Cu71       -0.037794    20.672686     5.615329 Cu   1 RES 0.0000
    72 Cu72       -0.037794    20.672686    31.958329 Cu   1 RES 0.0000
    73 Cu73       26.305206    -5.670314     5.615329 Cu   1 RES 0.0000
    74 Cu74       26.305206    -5.670314    31.958329 Cu   1 RES 0.0000
    75 Cu75       26.305206    20.672686     5.615329 Cu   1 RES 0.0000
    76 Cu76       26.305206    20.672686    31.958329 Cu   1 RES 0.0000
    77 Cu77       18.786878     5.670362    13.133701 Cu   1 RES 0.0000
    78 Cu78       18.786878    32.013362    13.133701 Cu   1 RES 0.0000
    79 Cu79       -5.615419    -5.670393    -0.037799 Cu   1 RES 0.0000
    80 Cu80       -5.615419    -5.670393    26.305201 Cu   1 RES 0.0000
    81 Cu81       -5.615419    20.672607    -0.037799 Cu   1 RES 0.0000
    82 Cu82       -5.615419    20.672607    26.305201 Cu   1 RES 0.0000
    83 Cu83       20.727581    -5.670393    -0.037799 Cu   1 RES 0.0000
    84 Cu84       20.727581    -5.670393    26.305201 Cu   1 RES 0.0000
    85 Cu85       20.727581    20.672607    -0.037799 Cu   1 RES 0.0000
    86 Cu86       20.727581    20.672607    26.305201 Cu   1 RES 0.0000
    87 Cu87       18.786869    -5.670357    13.209301 Cu   1 RES 0.0000
    88 Cu88       18.786869    20.672643    13.209301 Cu   1 RES 0.0000
    89 Cu89       -5.615400    18.841872    13.209302 Cu   1 RES 0.0000
    90 Cu90       20.727600    18.841872    13.209302 Cu   1 RES 0.0000
    91 Cu91        5.657988    -0.000002     5.657990 Cu   1 RES 0.0000
    92 Cu92        5.657988    -0.000002    32.000990 Cu   1 RES 0.0000
    93 Cu93        5.657988    26.342998     5.657990 Cu   1 RES 0.0000
    94 Cu94        5.657988    26.342998    32.000990 Cu   1 RES 0.0000
    95 Cu95       32.000988    -0.000002     5.657990 Cu   1 RES 0.0000
    96 Cu96       32.000988    -0.000002    32.000990 Cu   1 RES 0.0000
    97 Cu97       32.000988    26.342998     5.657990 Cu   1 RES 0.0000
    98 Cu98       32.000988    26.342998    32.000990 Cu   1 RES 0.0000
    99 Cu99        7.513514    13.171499    -5.657991 Cu   1 RES 0.0000
   100 Cu100       7.513514    13.171499    20.685009 Cu   1 RES 0.0000
   101 Cu101       7.513477    -0.000001    18.829523 Cu   1 RES 0.0000
   102 Cu102       7.513477    26.342999    18.829523 Cu   1 RES 0.0000
   103 Cu103       5.657961    -0.000001    -5.657959 Cu   1 RES 0.0000
   104 Cu104       5.657961    -0.000001    20.685041 Cu   1 RES 0.0000
   105 Cu105       5.657961    26.342999    -5.657959 Cu   1 RES 0.0000
   106 Cu106       5.657961    26.342999    20.685041 Cu   1 RES 0.0000
   107 Cu107      32.000961    -0.000001    -5.657959 Cu   1 RES 0.0000
   108 Cu108      32.000961    -0.000001    20.685041 Cu   1 RES 0.0000
   109 Cu109      32.000961    26.342999    -5.657959 Cu   1 RES 0.0000
   110 Cu110      32.000961    26.342999    20.685041 Cu   1 RES 0.0000
   111 Cu111       0.037808    18.841849    18.786875 Cu   1 RES 0.0000
   112 Cu112      26.380808    18.841849    18.786875 Cu   1 RES 0.0000
   113 Cu113      13.209294     7.501132    -5.615389 Cu   1 RES 0.0000
   114 Cu114      13.209294     7.501132    20.727611 Cu   1 RES 0.0000
   115 Cu115      13.133697     5.670392     7.556083 Cu   1 RES 0.0000
   116 Cu116      13.133697    32.013392     7.556083 Cu   1 RES 0.0000
   117 Cu117      13.133699     7.501167     5.615350 Cu   1 RES 0.0000
   118 Cu118      13.133699     7.501167    31.958350 Cu   1 RES 0.0000
   119 Cu119       5.615369    18.841845    13.133707 Cu   1 RES 0.0000
   120 Cu120      31.958369    18.841845    13.133707 Cu   1 RES 0.0000
   121 Cu121       7.556087     7.501110    -0.037802 Cu   1 RES 0.0000
   122 Cu122       7.556087     7.501110    26.305198 Cu   1 RES 0.0000
   123 Cu123       5.615343     7.501176    13.209305 Cu   1 RES 0.0000
   124 Cu124      31.958343     7.501176    13.209305 Cu   1 RES 0.0000
   125 Cu125       7.556078     5.670400    13.209302 Cu   1 RES 0.0000
   126 Cu126       7.556078    32.013400    13.209302 Cu   1 RES 0.0000
   127 Cu127       5.657983    13.171500    18.829479 Cu   1 RES 0.0000
   128 Cu128      32.000983    13.171500    18.829479 Cu   1 RES 0.0000
   129 Cu129       7.513508    -0.000001     7.513509 Cu   1 RES 0.0000
   130 Cu130       7.513508    26.342999     7.513509 Cu   1 RES 0.0000
   131 Cu131       7.513446    13.171499     5.658058 Cu   1 RES 0.0000
   132 Cu132       7.513446    13.171499    32.001058 Cu   1 RES 0.0000
   133 Cu133       5.657919    13.171497     7.513585 Cu   1 RES 0.0000
   134 Cu134      32.000919    13.171497     7.513585 Cu   1 RES 0.0000
   135 Cu135       0.037801     5.670354     5.615381 Cu   1 RES 0.0000
   136 Cu136       0.037801     5.670354    31.958381 Cu   1 RES 0.0000
   137 Cu137       0.037801    32.013354     5.615381 Cu   1 RES 0.0000
   138 Cu138       0.037801    32.013354    31.958381 Cu   1 RES 0.0000
   139 Cu139      26.380801     5.670354     5.615381 Cu   1 RES 0.0000
   140 Cu140      26.380801     5.670354    31.958381 Cu   1 RES 0.0000
   141 Cu141      26.380801    32.013354     5.615381 Cu   1 RES 0.0000
   142 Cu142      26.380801    32.013354    31.958381 Cu   1 RES 0.0000
   143 Cu143      13.209299    -5.670351     7.556133 Cu   1 RES 0.0000
   144 Cu144      13.209299    20.672649     7.556133 Cu   1 RES 0.0000
   145 Cu145      13.133699    18.841887    -5.615413 Cu   1 RES 0.0000
   146 Cu146      13.133699    18.841887    20.727587 Cu   1 RES 0.0000
   147 Cu147      13.133695    -5.670337    18.786854 Cu   1 RES 0.0000
   148 Cu148      13.133695    20.672663    18.786854 Cu   1 RES 0.0000
   149 Cu149       5.615355     5.670337    -0.037801 Cu   1 RES 0.0000
   150 Cu150       5.615355     5.670337    26.305199 Cu   1 RES 0.0000
   151 Cu151       5.615355    32.013337    -0.037801 Cu   1 RES 0.0000
   152 Cu152       5.615355    32.013337    26.305199 Cu   1 RES 0.0000
   153 Cu153      31.958355     5.670337    -0.037801 Cu   1 RES 0.0000
   154 Cu154      31.958355     5.670337    26.305199 Cu   1 RES 0.0000
   155 Cu155      31.958355    32.013337    -0.037801 Cu   1 RES 0.0000
   156 Cu156      31.958355    32.013337    26.305199 Cu   1 RES 0.0000
   157 Cu157       7.556101    -5.670378    13.133702 Cu   1 RES 0.0000
   158 Cu158       7.556101    20.672622    13.133702 Cu   1 RES 0.0000
   159 Cu159       5.615346    -5.670333     0.037798 Cu   1 RES 0.0000
   160 Cu160       5.615346    -5.670333    26.380798 Cu   1 RES 0.0000
   161 Cu161       5.615346    20.672667     0.037798 Cu   1 RES 0.0000
   162 Cu162       5.615346    20.672667    26.380798 Cu   1 RES 0.0000
   163 Cu163      31.958346    -5.670333     0.037798 Cu   1 RES 0.0000
   164 Cu164      31.958346    -5.670333    26.380798 Cu   1 RES 0.0000
   165 Cu165      31.958346    20.672667     0.037798 Cu   1 RES 0.0000
   166 Cu166      31.958346    20.672667    26.380798 Cu   1 RES 0.0000
   167 Cu167       7.556081    18.841894     0.037801 Cu   1 RES 0.0000
   168 Cu168       7.556081    18.841894    26.380801 Cu   1 RES 0.0000
   169 H169      16.317272    20.179820     3.077600 H    1 RES 0.0000
   170 H170      16.317272    20.179820    29.420600 H    1 RES 0.0000
   171 H171      16.317270     6.163188    -3.077596 H    1 RES 0.0000
   172 H172      16.317270     6.163188    23.265404 H    1 RES 0.0000
   173 H173      -3.145763     7.008315    -3.077601 H    1 RES 0.0000
   174 H174      -3.145763     7.008315    23.265399 H    1 RES 0.0000
   175 H175      23.197237     7.008315    -3.077601 H    1 RES 0.0000
   176 H176      23.197237     7.008315    23.265399 H    1 RES 0.0000
   177 H177      -3.145763    19.334683     3.077602 H    1 RES 0.0000
   178 H178      -3.145763    19.334683    29.420602 H    1 RES 0.0000
   179 H179      23.197237    19.334683     3.077602 H    1 RES 0.0000
   180 H180      23.197237    19.334683    29.420602 H    1 RES 0.0000
   181 H181      20.172402    16.316421     3.077257 H    1 RES 0.0000
   182 H182      20.172402    16.316421    29.420257 H    1 RES 0.0000
   183 H183      19.342105    -3.144919     3.077256 H    1 RES 0.0000
   184 H184      19.342105    -3.144919    29.420256 H    1 RES 0.0000
   185 H185      19.342105    23.198081     3.077256 H    1 RES 0.0000
   186 H186      19.342105    23.198081    29.420256 H    1 RES 0.0000
   187 H187      20.172400    10.026576    -3.077255 H    1 RES 0.0000
   188 H188      20.172400    10.026576    23.265745 H    1 RES 0.0000
   189 H189      19.342102     3.144914    -3.077265 H    1 RES 0.0000
   190 H190      19.342102     3.144914    23.265735 H    1 RES 0.0000
   191 H191      19.342102    29.487914    -3.077265 H    1 RES 0.0000
   192 H192      19.342102    29.487914    23.265735 H    1 RES 0.0000
   193 H193      16.249099     6.163177     3.145776 H    1 RES 0.0000
   194 H194      16.249099     6.163177    29.488776 H    1 RES 0.0000
   195 H195      -3.077589     7.008318     3.145776 H    1 RES 0.0000
   196 H196      -3.077589     7.008318    29.488776 H    1 RES 0.0000
   197 H197      23.265411     7.008318     3.145776 H    1 RES 0.0000
   198 H198      23.265411     7.008318    29.488776 H    1 RES 0.0000
   199 H199      -3.077594    19.334685    -3.145771 H    1 RES 0.0000
   200 H200      -3.077594    19.334685    23.197229 H    1 RES 0.0000
   201 H201      23.265406    19.334685    -3.145771 H    1 RES 0.0000
   202 H202      23.265406    19.334685    23.197229 H    1 RES 0.0000
   203 H203      16.249097    20.179814    -3.145771 H    1 RES 0.0000
   204 H204      16.249097    20.179814    23.197229 H    1 RES 0.0000
   205 H205      16.248756    -3.144924    20.172397 H    1 RES 0.0000
   206 H206      16.248756    23.198076    20.172397 H    1 RES 0.0000
   207 H207      16.248756     3.144916     6.170609 H    1 RES 0.0000
   208 H208      16.248756    29.487916     6.170609 H    1 RES 0.0000
   209 H209      -3.077258    16.316420    20.172397 H    1 RES 0.0000
   210 H210      23.265742    16.316420    20.172397 H    1 RES 0.0000
   211 H211      -3.077255    10.026584     6.170606 H    1 RES 0.0000
   212 H212      23.265745    10.026584     6.170606 H    1 RES 0.0000
   213 H213      16.317262     7.008314    16.249102 H    1 RES 0.0000
   214 H214      16.317271    19.334681    10.093905 H    1 RES 0.0000
   215 H215      -3.145773    20.179819    10.093904 H    1 RES 0.0000
   216 H216      23.197227    20.179819    10.093904 H    1 RES 0.0000
   217 H217      -3.145768     6.163186    16.249100 H    1 RES 0.0000
   218 H218      23.197232     6.163186    16.249100 H    1 RES 0.0000
   219 H219      20.172399     3.144924    16.248757 H    1 RES 0.0000
   220 H220      20.172399    29.487924    16.248757 H    1 RES 0.0000
   221 H221      19.342100    10.026578    16.248758 H    1 RES 0.0000
   222 H222      20.172395    -3.144922    10.094248 H    1 RES 0.0000
   223 H223      20.172395    23.198078    10.094248 H    1 RES 0.0000
   224 H224      19.342102    16.316420    10.094246 H    1 RES 0.0000
   225 H225      16.249097    19.334683    16.317270 H    1 RES 0.0000
   226 H226      -3.077595    20.179811    16.317270 H    1 RES 0.0000
   227 H227      23.265405    20.179811    16.317270 H    1 RES 0.0000
   228 H228      -3.077605     6.163181    10.025737 H    1 RES 0.0000
   229 H229      23.265395     6.163181    10.025737 H    1 RES 0.0000
   230 H230      16.249098     7.008316    10.025736 H    1 RES 0.0000
   231 H231      16.248757    10.026579     7.000899 H    1 RES 0.0000
   232 H232      16.248754    16.316420    19.342105 H    1 RES 0.0000
   233 H233      -3.077250     3.144926     7.000897 H    1 RES 0.0000
   234 H234      -3.077250    29.487926     7.000897 H    1 RES 0.0000
   235 H235      23.265750     3.144926     7.000897 H    1 RES 0.0000
   236 H236      23.265750    29.487926     7.000897 H    1 RES 0.0000
   237 H237      -3.077255    -3.144924    19.342101 H    1 RES 0.0000
   238 H238      -3.077255    23.198076    19.342101 H    1 RES 0.0000
   239 H239      23.265745    -3.144924    19.342101 H    1 RES 0.0000
   240 H240      23.265745    23.198076    19.342101 H    1 RES 0.0000
   241 H241       3.145773    20.179818    16.249099 H    1 RES 0.0000
   242 H242      29.488773    20.179818    16.249099 H    1 RES 0.0000
   243 H243       3.145776     6.163184    10.093908 H    1 RES 0.0000
   244 H244      29.488776     6.163184    10.093908 H    1 RES 0.0000
   245 H245      10.025730     7.008320    10.093904 H    1 RES 0.0000
   246 H246      10.025734    19.334679    16.249104 H    1 RES 0.0000
   247 H247       7.000899    16.316422    16.248756 H    1 RES 0.0000
   248 H248       6.170606    -3.144923    16.248755 H    1 RES 0.0000
   249 H249       6.170606    23.198077    16.248755 H    1 RES 0.0000
   250 H250       7.000901    10.026578    10.094243 H    1 RES 0.0000
   251 H251       6.170602     3.144920    10.094242 H    1 RES 0.0000
   252 H252       6.170602    29.487920    10.094242 H    1 RES 0.0000
   253 H253       3.077601     6.163184    16.317269 H    1 RES 0.0000
   254 H254      29.420601     6.163184    16.317269 H    1 RES 0.0000
   255 H255      10.093907     7.008320    16.317276 H    1 RES 0.0000
   256 H256      10.093899    19.334681    10.025735 H    1 RES 0.0000
   257 H257       3.077600    20.179813    10.025735 H    1 RES 0.0000
   258 H258      29.420600    20.179813    10.025735 H    1 RES 0.0000
   259 H259       3.077260    -3.144921     7.000900 H    1 RES 0.0000
   260 H260       3.077260    23.198079     7.000900 H    1 RES 0.0000
   261 H261      29.420260    -3.144921     7.000900 H    1 RES 0.0000
   262 H262      29.420260    23.198079     7.000900 H    1 RES 0.0000
   263 H263       3.077262     3.144918    19.342102 H    1 RES 0.0000
   264 H264       3.077262    29.487918    19.342102 H    1 RES 0.0000
   265 H265      29.420262     3.144918    19.342102 H    1 RES 0.0000
   266 H266      29.420262    29.487918    19.342102 H    1 RES 0.0000
   267 H267      10.094248    16.316419     7.000894 H    1 RES 0.0000
   268 H268      10.094242    10.026584    19.342104 H    1 RES 0.0000
   269 H269       3.145768     7.008321     3.077602 H    1 RES 0.0000
   270 H270       3.145768     7.008321    29.420602 H    1 RES 0.0000
   271 H271      29.488768     7.008321     3.077602 H    1 RES 0.0000
   272 H272      29.488768     7.008321    29.420602 H    1 RES 0.0000
   273 H273       3.145778    19.334677    -3.077596 H    1 RES 0.0000
   274 H274       3.145778    19.334677    23.265404 H    1 RES 0.0000
   275 H275      29.488778    19.334677    -3.077596 H    1 RES 0.0000
   276 H276      29.488778    19.334677    23.265404 H    1 RES 0.0000
   277 H277      10.025735    20.179812    -3.077600 H    1 RES 0.0000
   278 H278      10.025735    20.179812    23.265400 H    1 RES 0.0000
   279 H279      10.025731     6.163185     3.077597 H    1 RES 0.0000
   280 H280      10.025731     6.163185    29.420597 H    1 RES 0.0000
   281 H281       7.000898     3.144922     3.077258 H    1 RES 0.0000
   282 H282       7.000898     3.144922    29.420258 H    1 RES 0.0000
   283 H283       7.000898    29.487922     3.077258 H    1 RES 0.0000
   284 H284       7.000898    29.487922    29.420258 H    1 RES 0.0000
   285 H285       6.170607    10.026578     3.077251 H    1 RES 0.0000
   286 H286       6.170607    10.026578    29.420251 H    1 RES 0.0000
   287 H287       7.000900    -3.144922    -3.077261 H    1 RES 0.0000
   288 H288       7.000900    -3.144922    23.265739 H    1 RES 0.0000
   289 H289       7.000900    23.198078    -3.077261 H    1 RES 0.0000
   290 H290       7.000900    23.198078    23.265739 H    1 RES 0.0000
   291 H291       6.170609    16.316410    -3.077262 H    1 RES 0.0000
   292 H292       6.170609    16.316410    23.265738 H    1 RES 0.0000
   293 H293       3.077603    19.334675     3.145771 H    1 RES 0.0000
   294 H294       3.077603    19.334675    29.488771 H    1 RES 0.0000
   295 H295      29.420603    19.334675     3.145771 H    1 RES 0.0000
   296 H296      29.420603    19.334675    29.488771 H    1 RES 0.0000
   297 H297      10.093903    20.179813     3.145768 H    1 RES 0.0000
   298 H298      10.093903    20.179813    29.488768 H    1 RES 0.0000
   299 H299      10.093903     6.163185    -3.145771 H    1 RES 0.0000
   300 H300      10.093903     6.163185    23.197229 H    1 RES 0.0000
   301 H301       3.077603     7.008321    -3.145768 H    1 RES 0.0000
   302 H302       3.077603     7.008321    23.197232 H    1 RES 0.0000
   303 H303      29.420603     7.008321    -3.145768 H    1 RES 0.0000
   304 H304      29.420603     7.008321    23.197232 H    1 RES 0.0000
   305 H305       3.077258    10.026579    20.172397 H    1 RES 0.0000
   306 H306      29.420258    10.026579    20.172397 H    1 RES 0.0000
   307 H307       3.077262    16.316414     6.170604 H    1 RES 0.0000
   308 H308      29.420262    16.316414     6.170604 H    1 RES 0.0000
   309 H309      10.094245     3.144923    20.172395 H    1 RES 0.0000
   310 H310      10.094245    29.487923    20.172395 H    1 RES 0.0000
   311 H311      10.094244    -3.144924     6.170601 H    1 RES 0.0000
   312 H312      10.094244    23.198076     6.170601 H    1 RES 0.0000
   313 H313      15.353391     3.430303    19.636949 H    1 RES 0.0000
   314 H314      15.353391    29.773303    19.636949 H    1 RES 0.0000
   315 H315      16.600792     2.176405    19.632947 H    1 RES 0.0000
   316 H316      16.600792    28.519405    19.632947 H    1 RES 0.0000
   317 H317      -2.181890    16.601800     6.706048 H    1 RES 0.0000
   318 H318      24.161110    16.601800     6.706048 H    1 RES 0.0000
   319 H319      -3.429290    15.347903     6.710051 H    1 RES 0.0000
   320 H320      22.913710    15.347903     6.710051 H    1 RES 0.0000
   321 H321      -2.181896     9.741198    19.636957 H    1 RES 0.0000
   322 H322      24.161104     9.741198    19.636957 H    1 RES 0.0000
   323 H323      -3.429297    10.995102    19.632950 H    1 RES 0.0000
   324 H324      22.913703    10.995102    19.632950 H    1 RES 0.0000
   325 H325      15.353399    -3.430304     6.706043 H    1 RES 0.0000
   326 H326      15.353399    22.912696     6.706043 H    1 RES 0.0000
   327 H327      16.600797    -2.176396     6.710058 H    1 RES 0.0000
   328 H328      16.600797    24.166604     6.710058 H    1 RES 0.0000
   329 H329      19.636963     9.741195     2.181895 H    1 RES 0.0000
   330 H330      19.636963     9.741195    28.524895 H    1 RES 0.0000
   331 H331      19.632953    10.995100     3.429298 H    1 RES 0.0000
   332 H332      19.632953    10.995100    29.772298 H    1 RES 0.0000
   333 H333      19.877539    -3.430307    -2.181900 H    1 RES 0.0000
   334 H334      19.877539    -3.430307    24.161100 H    1 RES 0.0000
   335 H335      19.877539    22.912693    -2.181900 H    1 RES 0.0000
   336 H336      19.877539    22.912693    24.161100 H    1 RES 0.0000
   337 H337      19.881547    -2.176401    -3.429301 H    1 RES 0.0000
   338 H338      19.881547    -2.176401    22.913699 H    1 RES 0.0000
   339 H339      19.881547    24.166599    -3.429301 H    1 RES 0.0000
   340 H340      19.881547    24.166599    22.913699 H    1 RES 0.0000
   341 H341      19.636959    16.601803    -2.181895 H    1 RES 0.0000
   342 H342      19.636959    16.601803    24.161105 H    1 RES 0.0000
   343 H343      19.632953    15.347898    -3.429300 H    1 RES 0.0000
   344 H344      19.632953    15.347898    22.913700 H    1 RES 0.0000
   345 H345      19.877536     3.430309     2.181895 H    1 RES 0.0000
   346 H346      19.877536     3.430309    28.524895 H    1 RES 0.0000
   347 H347      19.877536    29.773309     2.181895 H    1 RES 0.0000
   348 H348      19.877536    29.773309    28.524895 H    1 RES 0.0000
   349 H349      19.881551     2.176401     3.429293 H    1 RES 0.0000
   350 H350      19.881551     2.176401    29.772293 H    1 RES 0.0000
   351 H351      19.881551    28.519401     3.429293 H    1 RES 0.0000
   352 H352      19.881551    28.519401    29.772293 H    1 RES 0.0000
   353 H353      15.353395    16.601804     6.465463 H    1 RES 0.0000
   354 H354      16.600798    15.347898     6.461452 H    1 RES 0.0000
   355 H355      -2.181894     3.430307    19.877537 H    1 RES 0.0000
   356 H356      -2.181894    29.773307    19.877537 H    1 RES 0.0000
   357 H357      24.161106     3.430307    19.877537 H    1 RES 0.0000
   358 H358      24.161106    29.773307    19.877537 H    1 RES 0.0000
   359 H359      -3.429298     2.176402    19.881542 H    1 RES 0.0000
   360 H360      -3.429298    28.519402    19.881542 H    1 RES 0.0000
   361 H361      22.913702     2.176402    19.881542 H    1 RES 0.0000
   362 H362      22.913702    28.519402    19.881542 H    1 RES 0.0000
   363 H363      -2.181893    -3.430310     6.465463 H    1 RES 0.0000
   364 H364      -2.181893    22.912690     6.465463 H    1 RES 0.0000
   365 H365      24.161107    -3.430310     6.465463 H    1 RES 0.0000
   366 H366      24.161107    22.912690     6.465463 H    1 RES 0.0000
   367 H367      -3.429296    -2.176401     6.461455 H    1 RES 0.0000
   368 H368      -3.429296    24.166599     6.461455 H    1 RES 0.0000
   369 H369      22.913704    -2.176401     6.461455 H    1 RES 0.0000
   370 H370      22.913704    24.166599     6.461455 H    1 RES 0.0000
   371 H371      15.353397     9.741201    19.877543 H    1 RES 0.0000
   372 H372      16.600798    10.995103    19.881550 H    1 RES 0.0000
   373 H373      19.636955    -3.430303    15.353397 H    1 RES 0.0000
   374 H374      19.636955    22.912697    15.353397 H    1 RES 0.0000
   375 H375      19.632954    -2.176403    16.600800 H    1 RES 0.0000
   376 H376      19.632954    24.166597    16.600800 H    1 RES 0.0000
   377 H377      19.877542     9.741202    10.989605 H    1 RES 0.0000
   378 H378      19.881549    10.995100     9.742207 H    1 RES 0.0000
   379 H379      19.636960     3.430303    10.989604 H    1 RES 0.0000
   380 H380      19.636960    29.773303    10.989604 H    1 RES 0.0000
   381 H381      19.632945     2.176395     9.742206 H    1 RES 0.0000
   382 H382      19.632945    28.519395     9.742206 H    1 RES 0.0000
   383 H383      19.877539    16.601805    15.353397 H    1 RES 0.0000
   384 H384      19.881548    15.347899    16.600798 H    1 RES 0.0000
   385 H385       2.181898     3.430308     6.465461 H    1 RES 0.0000
   386 H386       2.181898    29.773308     6.465461 H    1 RES 0.0000
   387 H387      28.524898     3.430308     6.465461 H    1 RES 0.0000
   388 H388      28.524898    29.773308     6.465461 H    1 RES 0.0000
   389 H389       3.429300     2.176402     6.461454 H    1 RES 0.0000
   390 H390       3.429300    28.519402     6.461454 H    1 RES 0.0000
   391 H391      29.772300     2.176402     6.461454 H    1 RES 0.0000
   392 H392      29.772300    28.519402     6.461454 H    1 RES 0.0000
   393 H393      10.989603    16.601798    19.877537 H    1 RES 0.0000
   394 H394       9.742200    15.347893    19.881549 H    1 RES 0.0000
   395 H395      10.989607     9.741194     6.465461 H    1 RES 0.0000
   396 H396       9.742202    10.995100     6.461457 H    1 RES 0.0000
   397 H397       2.181899    -3.430307    19.877534 H    1 RES 0.0000
   398 H398       2.181899    22.912693    19.877534 H    1 RES 0.0000
   399 H399      28.524899    -3.430307    19.877534 H    1 RES 0.0000
   400 H400      28.524899    22.912693    19.877534 H    1 RES 0.0000
   401 H401       3.429303    -2.176398    19.881545 H    1 RES 0.0000
   402 H402       3.429303    24.166602    19.881545 H    1 RES 0.0000
   403 H403      29.772303    -2.176398    19.881545 H    1 RES 0.0000
   404 H404      29.772303    24.166602    19.881545 H    1 RES 0.0000
   405 H405       6.465465     9.741195    15.353395 H    1 RES 0.0000
   406 H406       6.461455    10.995100    16.600797 H    1 RES 0.0000
   407 H407       6.706044    -3.430302    10.989605 H    1 RES 0.0000
   408 H408       6.706044    22.912698    10.989605 H    1 RES 0.0000
   409 H409       6.710052    -2.176402     9.742207 H    1 RES 0.0000
   410 H410       6.710052    24.166598     9.742207 H    1 RES 0.0000
   411 H411       6.465460    16.601804    10.989610 H    1 RES 0.0000
   412 H412       6.461452    15.347900     9.742207 H    1 RES 0.0000
   413 H413       6.706045     3.430303    15.353396 H    1 RES 0.0000
   414 H414       6.706045    29.773303    15.353396 H    1 RES 0.0000
   415 H415       6.710051     2.176401    16.600796 H    1 RES 0.0000
   416 H416       6.710051    28.519401    16.600796 H    1 RES 0.0000
   417 H417       2.181897    16.601804    19.636962 H    1 RES 0.0000
   418 H418      28.524897    16.601804    19.636962 H    1 RES 0.0000
   419 H419       3.429294    15.347899    19.632948 H    1 RES 0.0000
   420 H420      29.772294    15.347899    19.632948 H    1 RES 0.0000
   421 H421      10.989602     3.430302     6.706041 H    1 RES 0.0000
   422 H422      10.989602    29.773302     6.706041 H    1 RES 0.0000
   423 H423       9.742204     2.176399     6.710050 H    1 RES 0.0000
   424 H424       9.742204    28.519399     6.710050 H    1 RES 0.0000
   425 H425      10.989606    -3.430302    19.636953 H    1 RES 0.0000
   426 H426      10.989606    22.912698    19.636953 H    1 RES 0.0000
   427 H427       9.742205    -2.176401    19.632949 H    1 RES 0.0000
   428 H428       9.742205    24.166599    19.632949 H    1 RES 0.0000
   429 H429       2.181896     9.741197     6.706042 H    1 RES 0.0000
   430 H430      28.524896     9.741197     6.706042 H    1 RES 0.0000
   431 H431       3.429299    10.995102     6.710052 H    1 RES 0.0000
   432 H432      29.772299    10.995102     6.710052 H    1 RES 0.0000
   433 H433       6.465461    -3.430305     2.181898 H    1 RES 0.0000
   434 H434       6.465461    -3.430305    28.524898 H    1 RES 0.0000
   435 H435       6.465461    22.912695     2.181898 H    1 RES 0.0000
   436 H436       6.465461    22.912695    28.524898 H    1 RES 0.0000
   437 H437       6.461453    -2.176400     3.429298 H    1 RES 0.0000
   438 H438       6.461453    -2.176400    29.772298 H    1 RES 0.0000
   439 H439       6.461453    24.166600     3.429298 H    1 RES 0.0000
   440 H440       6.461453    24.166600    29.772298 H    1 RES 0.0000
   441 H441       6.706039     9.741202    -2.181902 H    1 RES 0.0000
   442 H442       6.706039     9.741202    24.161098 H    1 RES 0.0000
   443 H443       6.710051    10.995105    -3.429304 H    1 RES 0.0000
   444 H444       6.710051    10.995105    22.913696 H    1 RES 0.0000
   445 H445       6.465463     3.430309    -2.181896 H    1 RES 0.0000
   446 H446       6.465463     3.430309    24.161104 H    1 RES 0.0000
   447 H447       6.465463    29.773309    -2.181896 H    1 RES 0.0000
   448 H448       6.465463    29.773309    24.161104 H    1 RES 0.0000
   449 H449       6.461454     2.176399    -3.429301 H    1 RES 0.0000
   450 H450       6.461454     2.176399    22.913699 H    1 RES 0.0000
   451 H451       6.461454    28.519399    -3.429301 H    1 RES 0.0000
   452 H452       6.461454    28.519399    22.913699 H    1 RES 0.0000
   453 H453       6.706040    16.601803     2.181895 H    1 RES 0.0000
   454 H454       6.706040    16.601803    28.524895 H    1 RES 0.0000
   455 H455       6.710050    15.347899     3.429294 H    1 RES 0.0000
   456 H456       6.710050    15.347899    29.772294 H    1 RES 0.0000
   457 C457      18.613839     1.839471    -5.244745 C    1 RES 0.0000
   458 C458      18.613839     1.839471    21.098255 C    1 RES 0.0000
   459 C459      18.613839    28.182471    -5.244745 C    1 RES 0.0000
   460 C460      18.613839    28.182471    21.098255 C    1 RES 0.0000
   461 C461      -5.442328    15.010981     5.244744 C    1 RES 0.0000
   462 C462      -5.442328    15.010981    31.587744 C    1 RES 0.0000
   463 C463      20.900672    15.010981     5.244744 C    1 RES 0.0000
   464 C464      20.900672    15.010981    31.587744 C    1 RES 0.0000
   465 C465      -5.442312    11.332014    -5.244755 C    1 RES 0.0000
   466 C466      -5.442312    11.332014    21.098245 C    1 RES 0.0000
   467 C467      20.900688    11.332014    -5.244755 C    1 RES 0.0000
   468 C468      20.900688    11.332014    21.098245 C    1 RES 0.0000
   469 C469      18.613829    -1.839481     5.244747 C    1 RES 0.0000
   470 C470      18.613829    -1.839481    31.587747 C    1 RES 0.0000
   471 C471      18.613829    24.503519     5.244747 C    1 RES 0.0000
   472 C472      18.613829    24.503519    31.587747 C    1 RES 0.0000
   473 C473      15.030987    -5.439699     5.241700 C    1 RES 0.0000
   474 C474      15.030987    -5.439699    31.584700 C    1 RES 0.0000
   475 C475      15.030987    20.903301     5.241700 C    1 RES 0.0000
   476 C476      15.030987    20.903301    31.584700 C    1 RES 0.0000
   477 C477      15.030987     5.439685    -5.241713 C    1 RES 0.0000
   478 C478      15.030987     5.439685    21.101287 C    1 RES 0.0000
   479 C479      15.030987    31.782685    -5.241713 C    1 RES 0.0000
   480 C480      15.030987    31.782685    21.101287 C    1 RES 0.0000
   481 C481      -1.859486     7.731801    -5.241706 C    1 RES 0.0000
   482 C482      -1.859486     7.731801    21.101294 C    1 RES 0.0000
   483 C483      24.483514     7.731801    -5.241706 C    1 RES 0.0000
   484 C484      24.483514     7.731801    21.101294 C    1 RES 0.0000
   485 C485      -1.859484    18.611182     5.241735 C    1 RES 0.0000
   486 C486      -1.859484    18.611182    31.584735 C    1 RES 0.0000
   487 C487      24.483516    18.611182     5.241735 C    1 RES 0.0000
   488 C488      24.483516    18.611182    31.584735 C    1 RES 0.0000
   489 C489      -5.367132    18.531211     1.777011 C    1 RES 0.0000
   490 C490      -5.367132    18.531211    28.120011 C    1 RES 0.0000
   491 C491      20.975868    18.531211     1.777011 C    1 RES 0.0000
   492 C492      20.975868    18.531211    28.120011 C    1 RES 0.0000
   493 C493      18.538612    -5.359728     1.777010 C    1 RES 0.0000
   494 C494      18.538612    -5.359728    28.120010 C    1 RES 0.0000
   495 C495      18.538612    20.983272     1.777010 C    1 RES 0.0000
   496 C496      18.538612    20.983272    28.120010 C    1 RES 0.0000
   497 C497      -5.367113     7.811767    -1.777010 C    1 RES 0.0000
   498 C498      -5.367113     7.811767    24.565990 C    1 RES 0.0000
   499 C499      20.975887     7.811767    -1.777010 C    1 RES 0.0000
   500 C500      20.975887     7.811767    24.565990 C    1 RES 0.0000
   501 C501      18.538633     5.359709    -1.777009 C    1 RES 0.0000
   502 C502      18.538633     5.359709    24.565991 C    1 RES 0.0000
   503 C503      18.538633    31.702709    -1.777009 C    1 RES 0.0000
   504 C504      18.538633    31.702709    24.565991 C    1 RES 0.0000
   505 C505      -5.244754    11.332019     5.442317 C    1 RES 0.0000
   506 C506      -5.244754    11.332019    31.785317 C    1 RES 0.0000
   507 C507      21.098246    11.332019     5.442317 C    1 RES 0.0000
   508 C508      21.098246    11.332019    31.785317 C    1 RES 0.0000
   509 C509      18.416264    -1.839468    -5.442326 C    1 RES 0.0000
   510 C510      18.416264    -1.839468    20.900674 C    1 RES 0.0000
   511 C511      18.416264    24.503532    -5.442326 C    1 RES 0.0000
   512 C512      18.416264    24.503532    20.900674 C    1 RES 0.0000
   513 C513      -5.244739    15.010990    -5.442325 C    1 RES 0.0000
   514 C514      -5.244739    15.010990    20.900675 C    1 RES 0.0000
   515 C515      21.098261    15.010990    -5.442325 C    1 RES 0.0000
   516 C516      21.098261    15.010990    20.900675 C    1 RES 0.0000
   517 C517      18.416266     1.839474     5.442319 C    1 RES 0.0000
   518 C518      18.416266     1.839474    31.785319 C    1 RES 0.0000
   519 C519      18.416266    28.182474     5.442319 C    1 RES 0.0000
   520 C520      18.416266    28.182474    31.785319 C    1 RES 0.0000
   521 C521      18.413234     5.439671     1.859486 C    1 RES 0.0000
   522 C522      18.413234     5.439671    28.202486 C    1 RES 0.0000
   523 C523      18.413234    31.782671     1.859486 C    1 RES 0.0000
   524 C524      18.413234    31.782671    28.202486 C    1 RES 0.0000
   525 C525      -5.241694     7.731785     1.859486 C    1 RES 0.0000
   526 C526      -5.241694     7.731785    28.202486 C    1 RES 0.0000
   527 C527      21.101306     7.731785     1.859486 C    1 RES 0.0000
   528 C528      21.101306     7.731785    28.202486 C    1 RES 0.0000
   529 C529      -5.241727    18.611185    -1.859484 C    1 RES 0.0000
   530 C530      -5.241727    18.611185    24.483516 C    1 RES 0.0000
   531 C531      21.101273    18.611185    -1.859484 C    1 RES 0.0000
   532 C532      21.101273    18.611185    24.483516 C    1 RES 0.0000
   533 C533      18.413202    -5.439705    -1.859486 C    1 RES 0.0000
   534 C534      18.413202    -5.439705    24.483514 C    1 RES 0.0000
   535 C535      18.413202    20.903295    -1.859486 C    1 RES 0.0000
   536 C536      18.413202    20.903295    24.483514 C    1 RES 0.0000
   537 C537      14.948512    -5.359727    -5.367106 C    1 RES 0.0000
   538 C538      14.948512    -5.359727    20.975894 C    1 RES 0.0000
   539 C539      14.948512    20.983273    -5.367106 C    1 RES 0.0000
   540 C540      14.948512    20.983273    20.975894 C    1 RES 0.0000
   541 C541      14.948515     5.359708     5.367124 C    1 RES 0.0000
   542 C542      14.948515     5.359708    31.710124 C    1 RES 0.0000
   543 C543      14.948515    31.702708     5.367124 C    1 RES 0.0000
   544 C544      14.948515    31.702708    31.710124 C    1 RES 0.0000
   545 C545      -1.777009    18.531222    -5.367123 C    1 RES 0.0000
   546 C546      -1.777009    18.531222    20.975877 C    1 RES 0.0000
   547 C547      24.565991    18.531222    -5.367123 C    1 RES 0.0000
   548 C548      24.565991    18.531222    20.975877 C    1 RES 0.0000
   549 C549      -1.777011     7.811779     5.367125 C    1 RES 0.0000
   550 C550      -1.777011     7.811779    31.710125 C    1 RES 0.0000
   551 C551      24.565989     7.811779     5.367125 C    1 RES 0.0000
   552 C552      24.565989     7.811779    31.710125 C    1 RES 0.0000
   553 C553      17.893658     2.985753    -4.629644 C    1 RES 0.0000
   554 C554      17.893658     2.985753    21.713356 C    1 RES 0.0000
   555 C555      17.893658    29.328753    -4.629644 C    1 RES 0.0000
   556 C556      17.893658    29.328753    21.713356 C    1 RES 0.0000
   557 C557      -4.722141    16.157268     4.629644 C    1 RES 0.0000
   558 C558      -4.722141    16.157268    30.972644 C    1 RES 0.0000
   559 C559      21.620859    16.157268     4.629644 C    1 RES 0.0000
   560 C560      21.620859    16.157268    30.972644 C    1 RES 0.0000
   561 C561      -4.722143    10.185727    -4.629641 C    1 RES 0.0000
   562 C562      -4.722143    10.185727    21.713359 C    1 RES 0.0000
   563 C563      21.620857    10.185727    -4.629641 C    1 RES 0.0000
   564 C564      21.620857    10.185727    21.713359 C    1 RES 0.0000
   565 C565      17.893654    -2.985763     4.629642 C    1 RES 0.0000
   566 C566      17.893654    -2.985763    30.972642 C    1 RES 0.0000
   567 C567      17.893654    23.357237     4.629642 C    1 RES 0.0000
   568 C568      17.893654    23.357237    30.972642 C    1 RES 0.0000
   569 C569      16.169060    -4.709336     4.623890 C    1 RES 0.0000
   570 C570      16.169060    -4.709336    30.966890 C    1 RES 0.0000
   571 C571      16.169060    21.633664     4.623890 C    1 RES 0.0000
   572 C572      16.169060    21.633664    30.966890 C    1 RES 0.0000
   573 C573      16.169065     4.709336    -4.623883 C    1 RES 0.0000
   574 C574      16.169065     4.709336    21.719117 C    1 RES 0.0000
   575 C575      16.169065    31.052336    -4.623883 C    1 RES 0.0000
   576 C576      16.169065    31.052336    21.719117 C    1 RES 0.0000
   577 C577      -2.997553     8.462157    -4.623885 C    1 RES 0.0000
   578 C578      -2.997553     8.462157    21.719115 C    1 RES 0.0000
   579 C579      23.345447     8.462157    -4.623885 C    1 RES 0.0000
   580 C580      23.345447     8.462157    21.719115 C    1 RES 0.0000
   581 C581      -2.997550    17.880835     4.623897 C    1 RES 0.0000
   582 C582      -2.997550    17.880835    30.966897 C    1 RES 0.0000
   583 C583      23.345450    17.880835     4.623897 C    1 RES 0.0000
   584 C584      23.345450    17.880835    30.966897 C    1 RES 0.0000
   585 C585      -4.710278    17.872234     2.932753 C    1 RES 0.0000
   586 C586      -4.710278    17.872234    29.275753 C    1 RES 0.0000
   587 C587      21.632722    17.872234     2.932753 C    1 RES 0.0000
   588 C588      21.632722    17.872234    29.275753 C    1 RES 0.0000
   589 C589      17.881790    -4.700725     2.932755 C    1 RES 0.0000
   590 C590      17.881790    -4.700725    29.275755 C    1 RES 0.0000
   591 C591      17.881790    21.642275     2.932755 C    1 RES 0.0000
   592 C592      17.881790    21.642275    29.275755 C    1 RES 0.0000
   593 C593      -4.710281     8.470764    -2.932750 C    1 RES 0.0000
   594 C594      -4.710281     8.470764    23.410250 C    1 RES 0.0000
   595 C595      21.632719     8.470764    -2.932750 C    1 RES 0.0000
   596 C596      21.632719     8.470764    23.410250 C    1 RES 0.0000
   597 C597      17.881791     4.700724    -2.932753 C    1 RES 0.0000
   598 C598      17.881791     4.700724    23.410247 C    1 RES 0.0000
   599 C599      17.881791    31.043724    -2.932753 C    1 RES 0.0000
   600 C600      17.881791    31.043724    23.410247 C    1 RES 0.0000
   601 C601      -4.629635    10.185730     4.722149 C    1 RES 0.0000
   602 C602      -4.629635    10.185730    31.065149 C    1 RES 0.0000
   603 C603      21.713365    10.185730     4.722149 C    1 RES 0.0000
   604 C604      21.713365    10.185730    31.065149 C    1 RES 0.0000
   605 C605      17.801147    -2.985755    -4.722156 C    1 RES 0.0000
   606 C606      17.801147    -2.985755    21.620844 C    1 RES 0.0000
   607 C607      17.801147    23.357245    -4.722156 C    1 RES 0.0000
   608 C608      17.801147    23.357245    21.620844 C    1 RES 0.0000
   609 C609      -4.629636    16.157272    -4.722148 C    1 RES 0.0000
   610 C610      -4.629636    16.157272    21.620852 C    1 RES 0.0000
   611 C611      21.713364    16.157272    -4.722148 C    1 RES 0.0000
   612 C612      21.713364    16.157272    21.620852 C    1 RES 0.0000
   613 C613      17.801148     2.985759     4.722154 C    1 RES 0.0000
   614 C614      17.801148     2.985759    31.065154 C    1 RES 0.0000
   615 C615      17.801148    29.328759     4.722154 C    1 RES 0.0000
   616 C616      17.801148    29.328759    31.065154 C    1 RES 0.0000
   617 C617      17.795398     4.709329     2.997560 C    1 RES 0.0000
   618 C618      17.795398     4.709329    29.340560 C    1 RES 0.0000
   619 C619      17.795398    31.052329     2.997560 C    1 RES 0.0000
   620 C620      17.795398    31.052329    29.340560 C    1 RES 0.0000
   621 C621      -4.623883     8.462153     2.997553 C    1 RES 0.0000
   622 C622      -4.623883     8.462153    29.340553 C    1 RES 0.0000
   623 C623      21.719117     8.462153     2.997553 C    1 RES 0.0000
   624 C624      21.719117     8.462153    29.340553 C    1 RES 0.0000
   625 C625      -4.623890    17.880840    -2.997552 C    1 RES 0.0000
   626 C626      -4.623890    17.880840    23.345448 C    1 RES 0.0000
   627 C627      21.719110    17.880840    -2.997552 C    1 RES 0.0000
   628 C628      21.719110    17.880840    23.345448 C    1 RES 0.0000
   629 C629      17.795387    -4.709339    -2.997560 C    1 RES 0.0000
   630 C630      17.795387    -4.709339    23.345440 C    1 RES 0.0000
   631 C631      17.795387    21.633661    -2.997560 C    1 RES 0.0000
   632 C632      17.795387    21.633661    23.345440 C    1 RES 0.0000
   633 C633      16.104261    -4.700729    -4.710279 C    1 RES 0.0000
   634 C634      16.104261    -4.700729    21.632721 C    1 RES 0.0000
   635 C635      16.104261    21.642271    -4.710279 C    1 RES 0.0000
   636 C636      16.104261    21.642271    21.632721 C    1 RES 0.0000
   637 C637      16.104260     4.700719     4.710290 C    1 RES 0.0000
   638 C638      16.104260     4.700719    31.053290 C    1 RES 0.0000
   639 C639      16.104260    31.043719     4.710290 C    1 RES 0.0000
   640 C640      16.104260    31.043719    31.053290 C    1 RES 0.0000
   641 C641      -2.932752    17.872233    -4.710282 C    1 RES 0.0000
   642 C642      -2.932752    17.872233    21.632718 C    1 RES 0.0000
   643 C643      23.410248    17.872233    -4.710282 C    1 RES 0.0000
   644 C644      23.410248    17.872233    21.632718 C    1 RES 0.0000
   645 C645      -2.932749     8.470771     4.710287 C    1 RES 0.0000
   646 C646      -2.932749     8.470771    31.053287 C    1 RES 0.0000
   647 C647      23.410251     8.470771     4.710287 C    1 RES 0.0000
   648 C648      23.410251     8.470771    31.053287 C    1 RES 0.0000
   649 C649      16.712146     3.530104    -5.221769 C    1 RES 0.0000
   650 C650      16.712146     3.530104    21.121231 C    1 RES 0.0000
   651 C651      16.712146    29.873104    -5.221769 C    1 RES 0.0000
   652 C652      16.712146    29.873104    21.121231 C    1 RES 0.0000
   653 C653      -3.540635    16.701613     5.221770 C    1 RES 0.0000
   654 C654      -3.540635    16.701613    31.564770 C    1 RES 0.0000
   655 C655      22.802365    16.701613     5.221770 C    1 RES 0.0000
   656 C656      22.802365    16.701613    31.564770 C    1 RES 0.0000
   657 C657      -3.540635     9.641383    -5.221766 C    1 RES 0.0000
   658 C658      -3.540635     9.641383    21.121234 C    1 RES 0.0000
   659 C659      22.802365     9.641383    -5.221766 C    1 RES 0.0000
   660 C660      22.802365     9.641383    21.121234 C    1 RES 0.0000
   661 C661      16.712144    -3.530106     5.221771 C    1 RES 0.0000
   662 C662      16.712144    -3.530106    31.564771 C    1 RES 0.0000
   663 C663      16.712144    22.812894     5.221771 C    1 RES 0.0000
   664 C664      16.712144    22.812894    31.564771 C    1 RES 0.0000
   665 C665      16.746949    -5.267972     3.500649 C    1 RES 0.0000
   666 C666      16.746949    -5.267972    29.843649 C    1 RES 0.0000
   667 C667      16.746949    21.075028     3.500649 C    1 RES 0.0000
   668 C668      16.746949    21.075028    29.843649 C    1 RES 0.0000
   669 C669      16.746949     5.267973    -3.500647 C    1 RES 0.0000
   670 C670      16.746949     5.267973    22.842353 C    1 RES 0.0000
   671 C671      16.746949    31.610973    -3.500647 C    1 RES 0.0000
   672 C672      16.746949    31.610973    22.842353 C    1 RES 0.0000
   673 C673      -3.575445     7.903522    -3.500644 C    1 RES 0.0000
   674 C674      -3.575445     7.903522    22.842356 C    1 RES 0.0000
   675 C675      22.767555     7.903522    -3.500644 C    1 RES 0.0000
   676 C676      22.767555     7.903522    22.842356 C    1 RES 0.0000
   677 C677      -3.575437    18.439475     3.500654 C    1 RES 0.0000
   678 C678      -3.575437    18.439475    29.843654 C    1 RES 0.0000
   679 C679      22.767563    18.439475     3.500654 C    1 RES 0.0000
   680 C680      22.767563    18.439475    29.843654 C    1 RES 0.0000
   681 C681      -5.276415    16.740292     3.504980 C    1 RES 0.0000
   682 C682      -5.276415    16.740292    29.847980 C    1 RES 0.0000
   683 C683      21.066585    16.740292     3.504980 C    1 RES 0.0000
   684 C684      21.066585    16.740292    29.847980 C    1 RES 0.0000
   685 C685      18.447923    -3.568783     3.504986 C    1 RES 0.0000
   686 C686      18.447923    -3.568783    29.847986 C    1 RES 0.0000
   687 C687      18.447923    22.774217     3.504986 C    1 RES 0.0000
   688 C688      18.447923    22.774217    29.847986 C    1 RES 0.0000
   689 C689      -5.276418     9.602702    -3.504975 C    1 RES 0.0000
   690 C690      -5.276418     9.602702    22.838025 C    1 RES 0.0000
   691 C691      21.066582     9.602702    -3.504975 C    1 RES 0.0000
   692 C692      21.066582     9.602702    22.838025 C    1 RES 0.0000
   693 C693      18.447921     3.568783    -3.504987 C    1 RES 0.0000
   694 C694      18.447921     3.568783    22.838013 C    1 RES 0.0000
   695 C695      18.447921    29.911783    -3.504987 C    1 RES 0.0000
   696 C696      18.447921    29.911783    22.838013 C    1 RES 0.0000
   697 C697      -5.221764     9.641384     3.540638 C    1 RES 0.0000
   698 C698      -5.221764     9.641384    29.883638 C    1 RES 0.0000
   699 C699      21.121236     9.641384     3.540638 C    1 RES 0.0000
   700 C700      21.121236     9.641384    29.883638 C    1 RES 0.0000
   701 C701      18.393276    -3.530102    -3.540641 C    1 RES 0.0000
   702 C702      18.393276    -3.530102    22.802359 C    1 RES 0.0000
   703 C703      18.393276    22.812898    -3.540641 C    1 RES 0.0000
   704 C704      18.393276    22.812898    22.802359 C    1 RES 0.0000
   705 C705      -5.221769    16.701611    -3.540637 C    1 RES 0.0000
   706 C706      -5.221769    16.701611    22.802363 C    1 RES 0.0000
   707 C707      21.121231    16.701611    -3.540637 C    1 RES 0.0000
   708 C708      21.121231    16.701611    22.802363 C    1 RES 0.0000
   709 C709      18.393273     3.530102     3.540645 C    1 RES 0.0000
   710 C710      18.393273     3.530102    29.883645 C    1 RES 0.0000
   711 C711      18.393273    29.873102     3.540645 C    1 RES 0.0000
   712 C712      18.393273    29.873102    29.883645 C    1 RES 0.0000
   713 C713      16.672157     5.267967     3.575446 C    1 RES 0.0000
   714 C714      16.672157     5.267967    29.918446 C    1 RES 0.0000
   715 C715      16.672157    31.610967     3.575446 C    1 RES 0.0000
   716 C716      16.672157    31.610967    29.918446 C    1 RES 0.0000
   717 C717      -3.500643     7.903523     3.575447 C    1 RES 0.0000
   718 C718      -3.500643     7.903523    29.918447 C    1 RES 0.0000
   719 C719      22.842357     7.903523     3.575447 C    1 RES 0.0000
   720 C720      22.842357     7.903523    29.918447 C    1 RES 0.0000
   721 C721      -3.500651    18.439477    -3.575440 C    1 RES 0.0000
   722 C722      -3.500651    18.439477    22.767560 C    1 RES 0.0000
   723 C723      22.842349    18.439477    -3.575440 C    1 RES 0.0000
   724 C724      22.842349    18.439477    22.767560 C    1 RES 0.0000
   725 C725      16.672160    -5.267973    -3.575437 C    1 RES 0.0000
   726 C726      16.672160    -5.267973    22.767563 C    1 RES 0.0000
   727 C727      16.672160    21.075027    -3.575437 C    1 RES 0.0000
   728 C728      16.672160    21.075027    22.767563 C    1 RES 0.0000
   729 C729      16.676493    -3.568781    -5.276419 C    1 RES 0.0000
   730 C730      16.676493    -3.568781    21.066581 C    1 RES 0.0000
   731 C731      16.676493    22.774219    -5.276419 C    1 RES 0.0000
   732 C732      16.676493    22.774219    21.066581 C    1 RES 0.0000
   733 C733      16.676486     3.568778     5.276428 C    1 RES 0.0000
   734 C734      16.676486     3.568778    31.619428 C    1 RES 0.0000
   735 C735      16.676486    29.911778     5.276428 C    1 RES 0.0000
   736 C736      16.676486    29.911778    31.619428 C    1 RES 0.0000
   737 C737      -3.504974    16.740296    -5.276422 C    1 RES 0.0000
   738 C738      -3.504974    16.740296    21.066578 C    1 RES 0.0000
   739 C739      22.838026    16.740296    -5.276422 C    1 RES 0.0000
   740 C740      22.838026    16.740296    21.066578 C    1 RES 0.0000
   741 C741      -3.504974     9.602709     5.276425 C    1 RES 0.0000
   742 C742      -3.504974     9.602709    31.619425 C    1 RES 0.0000
   743 C743      22.838026     9.602709     5.276425 C    1 RES 0.0000
   744 C744      22.838026     9.602709    31.619425 C    1 RES 0.0000
   745 C745      18.613818    15.010979     7.926744 C    1 RES 0.0000
   746 C746      -5.442324     1.839471    18.416263 C    1 RES 0.0000
   747 C747      -5.442324    28.182471    18.416263 C    1 RES 0.0000
   748 C748      20.900676     1.839471    18.416263 C    1 RES 0.0000
   749 C749      20.900676    28.182471    18.416263 C    1 RES 0.0000
   750 C750      -5.442314    -1.839477     7.926730 C    1 RES 0.0000
   751 C751      -5.442314    24.503523     7.926730 C    1 RES 0.0000
   752 C752      20.900686    -1.839477     7.926730 C    1 RES 0.0000
   753 C753      20.900686    24.503523     7.926730 C    1 RES 0.0000
   754 C754      18.613824    11.332012    18.416240 C    1 RES 0.0000
   755 C755      15.030987     7.731796    18.413203 C    1 RES 0.0000
   756 C756      15.030989    18.611182     7.929771 C    1 RES 0.0000
   757 C757      -1.859488    -5.439700     7.929801 C    1 RES 0.0000
   758 C758      -1.859488    20.903300     7.929801 C    1 RES 0.0000
   759 C759      24.483512    -5.439700     7.929801 C    1 RES 0.0000
   760 C760      24.483512    20.903300     7.929801 C    1 RES 0.0000
   761 C761      -1.859484     5.439688    18.413220 C    1 RES 0.0000
   762 C762      -1.859484    31.782688    18.413220 C    1 RES 0.0000
   763 C763      24.483516     5.439688    18.413220 C    1 RES 0.0000
   764 C764      24.483516    31.782688    18.413220 C    1 RES 0.0000
   765 C765      -5.367131     5.359707    14.948512 C    1 RES 0.0000
   766 C766      -5.367131    31.702707    14.948512 C    1 RES 0.0000
   767 C767      20.975869     5.359707    14.948512 C    1 RES 0.0000
   768 C768      20.975869    31.702707    14.948512 C    1 RES 0.0000
   769 C769      18.538607     7.811764    14.948513 C    1 RES 0.0000
   770 C770      -5.367106    -5.359729    11.394488 C    1 RES 0.0000
   771 C771      -5.367106    20.983271    11.394488 C    1 RES 0.0000
   772 C772      20.975894    -5.359729    11.394488 C    1 RES 0.0000
   773 C773      20.975894    20.983271    11.394488 C    1 RES 0.0000
   774 C774      18.538636    18.531204    11.394487 C    1 RES 0.0000
   775 C775      -5.244747    -1.839473    18.613837 C    1 RES 0.0000
   776 C776      -5.244747    24.503527    18.613837 C    1 RES 0.0000
   777 C777      21.098253    -1.839473    18.613837 C    1 RES 0.0000
   778 C778      21.098253    24.503527    18.613837 C    1 RES 0.0000
   779 C779      18.416244    11.332020     7.729172 C    1 RES 0.0000
   780 C780      -5.244742     1.839483     7.729167 C    1 RES 0.0000
   781 C781      -5.244742    28.182483     7.729167 C    1 RES 0.0000
   782 C782      21.098258     1.839483     7.729167 C    1 RES 0.0000
   783 C783      21.098258    28.182483     7.729167 C    1 RES 0.0000
   784 C784      18.416257    15.010984    18.613812 C    1 RES 0.0000
   785 C785      18.413240    18.611169    15.030987 C    1 RES 0.0000
   786 C786      -5.241681    -5.439722    15.030988 C    1 RES 0.0000
   787 C787      -5.241681    20.903278    15.030988 C    1 RES 0.0000
   788 C788      21.101319    -5.439722    15.030988 C    1 RES 0.0000
   789 C789      21.101319    20.903278    15.030988 C    1 RES 0.0000
   790 C790      -5.241717     5.439683    11.312012 C    1 RES 0.0000
   791 C791      -5.241717    31.782683    11.312012 C    1 RES 0.0000
   792 C792      21.101283     5.439683    11.312012 C    1 RES 0.0000
   793 C793      21.101283    31.782683    11.312012 C    1 RES 0.0000
   794 C794      18.413208     7.731798    11.312014 C    1 RES 0.0000
   795 C795      14.948512     7.811774     7.804382 C    1 RES 0.0000
   796 C796      14.948514    18.531205    18.538637 C    1 RES 0.0000
   797 C797      -1.777014     5.359714     7.804380 C    1 RES 0.0000
   798 C798      -1.777014    31.702714     7.804380 C    1 RES 0.0000
   799 C799      24.565986     5.359714     7.804380 C    1 RES 0.0000
   800 C800      24.565986    31.702714     7.804380 C    1 RES 0.0000
   801 C801      -1.777008    -5.359720    18.538620 C    1 RES 0.0000
   802 C802      -1.777008    20.983280    18.538620 C    1 RES 0.0000
   803 C803      24.565992    -5.359720    18.538620 C    1 RES 0.0000
   804 C804      24.565992    20.983280    18.538620 C    1 RES 0.0000
   805 C805      17.893652    16.157267     8.541866 C    1 RES 0.0000
   806 C806      -4.722154     2.985755    17.801149 C    1 RES 0.0000
   807 C807      -4.722154    29.328755    17.801149 C    1 RES 0.0000
   808 C808      21.620846     2.985755    17.801149 C    1 RES 0.0000
   809 C809      21.620846    29.328755    17.801149 C    1 RES 0.0000
   810 C810      -4.722150    -2.985763     8.541851 C    1 RES 0.0000
   811 C811      -4.722150    23.357237     8.541851 C    1 RES 0.0000
   812 C812      21.620850    -2.985763     8.541851 C    1 RES 0.0000
   813 C813      21.620850    23.357237     8.541851 C    1 RES 0.0000
   814 C814      17.893646    10.185731    17.801139 C    1 RES 0.0000
   815 C815      16.169054     8.462167    17.795392 C    1 RES 0.0000
   816 C816      16.169052    17.880833     8.547604 C    1 RES 0.0000
   817 C817      -2.997560    -4.709343     8.547617 C    1 RES 0.0000
   818 C818      -2.997560    21.633657     8.547617 C    1 RES 0.0000
   819 C819      23.345440    -4.709343     8.547617 C    1 RES 0.0000
   820 C820      23.345440    21.633657     8.547617 C    1 RES 0.0000
   821 C821      -2.997560     4.709331    17.795393 C    1 RES 0.0000
   822 C822      -2.997560    31.052331    17.795393 C    1 RES 0.0000
   823 C823      23.345440     4.709331    17.795393 C    1 RES 0.0000
   824 C824      23.345440    31.052331    17.795393 C    1 RES 0.0000
   825 C825      -4.710279     4.700729    16.104261 C    1 RES 0.0000
   826 C826      -4.710279    31.043729    16.104261 C    1 RES 0.0000
   827 C827      21.632721     4.700729    16.104261 C    1 RES 0.0000
   828 C828      21.632721    31.043729    16.104261 C    1 RES 0.0000
   829 C829      17.881782     8.470769    16.104255 C    1 RES 0.0000
   830 C830      -4.710286    -4.700724    10.238743 C    1 RES 0.0000
   831 C831      -4.710286    21.642276    10.238743 C    1 RES 0.0000
   832 C832      21.632714    -4.700724    10.238743 C    1 RES 0.0000
   833 C833      21.632714    21.642276    10.238743 C    1 RES 0.0000
   834 C834      17.881781    17.872232    10.238746 C    1 RES 0.0000
   835 C835      -4.629638    -2.985757    17.893661 C    1 RES 0.0000
   836 C836      -4.629638    23.357243    17.893661 C    1 RES 0.0000
   837 C837      21.713362    -2.985757    17.893661 C    1 RES 0.0000
   838 C838      21.713362    23.357243    17.893661 C    1 RES 0.0000
   839 C839      17.801142    10.185731     8.449357 C    1 RES 0.0000
   840 C840      -4.629641     2.985762     8.449344 C    1 RES 0.0000
   841 C841      -4.629641    29.328762     8.449344 C    1 RES 0.0000
   842 C842      21.713359     2.985762     8.449344 C    1 RES 0.0000
   843 C843      21.713359    29.328762     8.449344 C    1 RES 0.0000
   844 C844      17.801141    16.157268    17.893647 C    1 RES 0.0000
   845 C845      17.795386    17.880839    16.169057 C    1 RES 0.0000
   846 C846      -4.623883    -4.709339    16.169062 C    1 RES 0.0000
   847 C847      -4.623883    21.633661    16.169062 C    1 RES 0.0000
   848 C848      21.719117    -4.709339    16.169062 C    1 RES 0.0000
   849 C849      21.719117    21.633661    16.169062 C    1 RES 0.0000
   850 C850      -4.623892     4.709332    10.173940 C    1 RES 0.0000
   851 C851      -4.623892    31.052332    10.173940 C    1 RES 0.0000
   852 C852      21.719108     4.709332    10.173940 C    1 RES 0.0000
   853 C853      21.719108    31.052332    10.173940 C    1 RES 0.0000
   854 C854      17.795393     8.462162    10.173949 C    1 RES 0.0000
   855 C855      16.104252     8.470765     8.461222 C    1 RES 0.0000
   856 C856      16.104252    17.872219    17.881792 C    1 RES 0.0000
   857 C857      -2.932758     4.700727     8.461217 C    1 RES 0.0000
   858 C858      -2.932758    31.043727     8.461217 C    1 RES 0.0000
   859 C859      23.410242     4.700727     8.461217 C    1 RES 0.0000
   860 C860      23.410242    31.043727     8.461217 C    1 RES 0.0000
   861 C861      -2.932754    -4.700731    17.881783 C    1 RES 0.0000
   862 C862      -2.932754    21.642269    17.881783 C    1 RES 0.0000
   863 C863      23.410246    -4.700731    17.881783 C    1 RES 0.0000
   864 C864      23.410246    21.642269    17.881783 C    1 RES 0.0000
   865 C865      16.712140    16.701607     7.949730 C    1 RES 0.0000
   866 C866      -3.540644     3.530101    18.393272 C    1 RES 0.0000
   867 C867      -3.540644    29.873101    18.393272 C    1 RES 0.0000
   868 C868      22.802356     3.530101    18.393272 C    1 RES 0.0000
   869 C869      22.802356    29.873101    18.393272 C    1 RES 0.0000
   870 C870      -3.540637    -3.530109     7.949725 C    1 RES 0.0000
   871 C871      -3.540637    22.812891     7.949725 C    1 RES 0.0000
   872 C872      22.802363    -3.530109     7.949725 C    1 RES 0.0000
   873 C873      22.802363    22.812891     7.949725 C    1 RES 0.0000
   874 C874      16.712140     9.641392    18.393269 C    1 RES 0.0000
   875 C875      16.746941     7.903523    16.672150 C    1 RES 0.0000
   876 C876      16.746938    18.439473     9.670846 C    1 RES 0.0000
   877 C877      -3.575446    -5.267973     9.670851 C    1 RES 0.0000
   878 C878      -3.575446    21.075027     9.670851 C    1 RES 0.0000
   879 C879      22.767554    -5.267973     9.670851 C    1 RES 0.0000
   880 C880      22.767554    21.075027     9.670851 C    1 RES 0.0000
   881 C881      -3.575438     5.267972    16.672159 C    1 RES 0.0000
   882 C882      -3.575438    31.610972    16.672159 C    1 RES 0.0000
   883 C883      22.767562     5.267972    16.672159 C    1 RES 0.0000
   884 C884      22.767562    31.610972    16.672159 C    1 RES 0.0000
   885 C885      -5.276417     3.568783    16.676492 C    1 RES 0.0000
   886 C886      -5.276417    29.911783    16.676492 C    1 RES 0.0000
   887 C887      21.066583     3.568783    16.676492 C    1 RES 0.0000
   888 C888      21.066583    29.911783    16.676492 C    1 RES 0.0000
   889 C889      18.447917     9.602706    16.676480 C    1 RES 0.0000
   890 C890      -5.276421    -3.568779     9.666510 C    1 RES 0.0000
   891 C891      -5.276421    22.774221     9.666510 C    1 RES 0.0000
   892 C892      21.066579    -3.568779     9.666510 C    1 RES 0.0000
   893 C893      21.066579    22.774221     9.666510 C    1 RES 0.0000
   894 C894      18.447922    16.740294     9.666526 C    1 RES 0.0000
   895 C895      -5.221766    -3.530103    16.712149 C    1 RES 0.0000
   896 C896      -5.221766    22.812897    16.712149 C    1 RES 0.0000
   897 C897      21.121234    -3.530103    16.712149 C    1 RES 0.0000
   898 C898      21.121234    22.812897    16.712149 C    1 RES 0.0000
   899 C899      18.393265     9.641385     9.630863 C    1 RES 0.0000
   900 C900      -5.221769     3.530104     9.630854 C    1 RES 0.0000
   901 C901      -5.221769    29.873104     9.630854 C    1 RES 0.0000
   902 C902      21.121231     3.530104     9.630854 C    1 RES 0.0000
   903 C903      21.121231    29.873104     9.630854 C    1 RES 0.0000
   904 C904      18.393270    16.701612    16.712135 C    1 RES 0.0000
   905 C905      16.672146    18.439472    16.746949 C    1 RES 0.0000
   906 C906      -3.500651    -5.267977    16.746941 C    1 RES 0.0000
   907 C907      -3.500651    21.075023    16.746941 C    1 RES 0.0000
   908 C908      22.842349    -5.267977    16.746941 C    1 RES 0.0000
   909 C909      22.842349    21.075023    16.746941 C    1 RES 0.0000
   910 C910      -3.500650     5.267973     9.596055 C    1 RES 0.0000
   911 C911      -3.500650    31.610973     9.596055 C    1 RES 0.0000
   912 C912      22.842350     5.267973     9.596055 C    1 RES 0.0000
   913 C913      22.842350    31.610973     9.596055 C    1 RES 0.0000
   914 C914      16.672149     7.903522     9.596061 C    1 RES 0.0000
   915 C915      16.676478     9.602707     7.895082 C    1 RES 0.0000
   916 C916      16.676479    16.740286    18.447924 C    1 RES 0.0000
   917 C917      -3.504983     3.568787     7.895078 C    1 RES 0.0000
   918 C918      -3.504983    29.911787     7.895078 C    1 RES 0.0000
   919 C919      22.838017     3.568787     7.895078 C    1 RES 0.0000
   920 C920      22.838017    29.911787     7.895078 C    1 RES 0.0000
   921 C921      -3.504985    -3.568786    18.447920 C    1 RES 0.0000
   922 C922      -3.504985    22.774214    18.447920 C    1 RES 0.0000
   923 C923      22.838015    -3.568786    18.447920 C    1 RES 0.0000
   924 C924      22.838015    22.774214    18.447920 C    1 RES 0.0000
   925 C925       5.442326     1.839477     7.926744 C    1 RES 0.0000
   926 C926       5.442326    28.182477     7.926744 C    1 RES 0.0000
   927 C927      31.785326     1.839477     7.926744 C    1 RES 0.0000
   928 C928      31.785326    28.182477     7.926744 C    1 RES 0.0000
   929 C929       7.729198    15.010993    18.416257 C    1 RES 0.0000
   930 C930       7.729198    11.332007     7.926749 C    1 RES 0.0000
   931 C931       5.442319    -1.839477    18.416264 C    1 RES 0.0000
   932 C932       5.442319    24.503523    18.416264 C    1 RES 0.0000
   933 C933      31.785319    -1.839477    18.416264 C    1 RES 0.0000
   934 C934      31.785319    24.503523    18.416264 C    1 RES 0.0000
   935 C935       1.859491    -5.439695    18.413208 C    1 RES 0.0000
   936 C936       1.859491    20.903305    18.413208 C    1 RES 0.0000
   937 C937      28.202491    -5.439695    18.413208 C    1 RES 0.0000
   938 C938      28.202491    20.903305    18.413208 C    1 RES 0.0000
   939 C939       1.859490     5.439685     7.929786 C    1 RES 0.0000
   940 C940       1.859490    31.782685     7.929786 C    1 RES 0.0000
   941 C941      28.202490     5.439685     7.929786 C    1 RES 0.0000
   942 C942      28.202490    31.782685     7.929786 C    1 RES 0.0000
   943 C943      11.312010     7.731817     7.929776 C    1 RES 0.0000
   944 C944      11.312011    18.611186    18.413224 C    1 RES 0.0000
   945 C945       7.804366    18.531201    14.948521 C    1 RES 0.0000
   946 C946       5.367100    -5.359733    14.948517 C    1 RES 0.0000
   947 C947       5.367100    20.983267    14.948517 C    1 RES 0.0000
   948 C948      31.710100    -5.359733    14.948517 C    1 RES 0.0000
   949 C949      31.710100    20.983267    14.948517 C    1 RES 0.0000
   950 C950       7.804389     7.811776    11.394484 C    1 RES 0.0000
   951 C951       5.367123     5.359707    11.394484 C    1 RES 0.0000
   952 C952       5.367123    31.702707    11.394484 C    1 RES 0.0000
   953 C953      31.710123     5.359707    11.394484 C    1 RES 0.0000
   954 C954      31.710123    31.702707    11.394484 C    1 RES 0.0000
   955 C955       7.926755    11.332006    18.613812 C    1 RES 0.0000
   956 C956       5.244760    -1.839479     7.729180 C    1 RES 0.0000
   957 C957       5.244760    24.503521     7.729180 C    1 RES 0.0000
   958 C958      31.587760    -1.839479     7.729180 C    1 RES 0.0000
   959 C959      31.587760    24.503521     7.729180 C    1 RES 0.0000
   960 C960       7.926770    15.010993     7.729178 C    1 RES 0.0000
   961 C961       5.244751     1.839477    18.613833 C    1 RES 0.0000
   962 C962       5.244751    28.182477    18.613833 C    1 RES 0.0000
   963 C963      31.587751     1.839477    18.613833 C    1 RES 0.0000
   964 C964      31.587751    28.182477    18.613833 C    1 RES 0.0000
   965 C965       5.241716     5.439684    15.030990 C    1 RES 0.0000
   966 C966       5.241716    31.782684    15.030990 C    1 RES 0.0000
   967 C967      31.584716     5.439684    15.030990 C    1 RES 0.0000
   968 C968      31.584716    31.782684    15.030990 C    1 RES 0.0000
   969 C969       7.929797     7.731802    15.030995 C    1 RES 0.0000
   970 C970       7.929758    18.611159    11.312010 C    1 RES 0.0000
   971 C971       5.241675    -5.439720    11.312010 C    1 RES 0.0000
   972 C972       5.241675    20.903280    11.312010 C    1 RES 0.0000
   973 C973      31.584675    -5.439720    11.312010 C    1 RES 0.0000
   974 C974      31.584675    20.903280    11.312010 C    1 RES 0.0000
   975 C975       1.777011    -5.359717     7.804383 C    1 RES 0.0000
   976 C976       1.777011    20.983283     7.804383 C    1 RES 0.0000
   977 C977      28.120011    -5.359717     7.804383 C    1 RES 0.0000
   978 C978      28.120011    20.983283     7.804383 C    1 RES 0.0000
   979 C979       1.777014     5.359708    18.538630 C    1 RES 0.0000
   980 C980       1.777014    31.702708    18.538630 C    1 RES 0.0000
   981 C981      28.120014     5.359708    18.538630 C    1 RES 0.0000
   982 C982      28.120014    31.702708    18.538630 C    1 RES 0.0000
   983 C983      11.394490    18.531223     7.804374 C    1 RES 0.0000
   984 C984      11.394483     7.811777    18.538616 C    1 RES 0.0000
   985 C985       4.722154     2.985758     8.541851 C    1 RES 0.0000
   986 C986       4.722154    29.328758     8.541851 C    1 RES 0.0000
   987 C987      31.065154     2.985758     8.541851 C    1 RES 0.0000
   988 C988      31.065154    29.328758     8.541851 C    1 RES 0.0000
   989 C989       8.449359    16.157276    17.801139 C    1 RES 0.0000
   990 C990       8.449374    10.185714     8.541854 C    1 RES 0.0000
   991 C991       4.722161    -2.985756    17.801143 C    1 RES 0.0000
   992 C992       4.722161    23.357244    17.801143 C    1 RES 0.0000
   993 C993      31.065161    -2.985756    17.801143 C    1 RES 0.0000
   994 C994      31.065161    23.357244    17.801143 C    1 RES 0.0000
   995 C995       2.997564    -4.709330    17.795394 C    1 RES 0.0000
   996 C996       2.997564    21.633670    17.795394 C    1 RES 0.0000
   997 C997      29.340564    -4.709330    17.795394 C    1 RES 0.0000
   998 C998      29.340564    21.633670    17.795394 C    1 RES 0.0000
   999 C999       2.997564     4.709335     8.547610 C    1 RES 0.0000
  1000 C1000      2.997564    31.052335     8.547610 C    1 RES 0.0000
  1001 C1001     29.340564     4.709335     8.547610 C    1 RES 0.0000
  1002 C1002     29.340564    31.052335     8.547610 C    1 RES 0.0000
  1003 C1003     10.173952     8.462152     8.547611 C    1 RES 0.0000
  1004 C1004     10.173948    17.880829    17.795402 C    1 RES 0.0000
  1005 C1005      8.461221    17.872228    16.104258 C    1 RES 0.0000
  1006 C1006      4.710283    -4.700724    16.104263 C    1 RES 0.0000
  1007 C1007      4.710283    21.642276    16.104263 C    1 RES 0.0000
  1008 C1008     31.053283    -4.700724    16.104263 C    1 RES 0.0000
  1009 C1009     31.053283    21.642276    16.104263 C    1 RES 0.0000
  1010 C1010      8.461222     8.470768    10.238745 C    1 RES 0.0000
  1011 C1011      4.710288     4.700719    10.238738 C    1 RES 0.0000
  1012 C1012      4.710288    31.043719    10.238738 C    1 RES 0.0000
  1013 C1013     31.053288     4.700719    10.238738 C    1 RES 0.0000
  1014 C1014     31.053288    31.043719    10.238738 C    1 RES 0.0000
  1015 C1015      8.541860    10.185722    17.893641 C    1 RES 0.0000
  1016 C1016      4.629643    -2.985762     8.449347 C    1 RES 0.0000
  1017 C1017      4.629643    23.357238     8.449347 C    1 RES 0.0000
  1018 C1018     30.972643    -2.985762     8.449347 C    1 RES 0.0000
  1019 C1019     30.972643    23.357238     8.449347 C    1 RES 0.0000
  1020 C1020      8.541877    16.157283     8.449352 C    1 RES 0.0000
  1021 C1021      4.629655     2.985755    17.893651 C    1 RES 0.0000
  1022 C1022      4.629655    29.328755    17.893651 C    1 RES 0.0000
  1023 C1023     30.972655     2.985755    17.893651 C    1 RES 0.0000
  1024 C1024     30.972655    29.328755    17.893651 C    1 RES 0.0000
  1025 C1025      4.623888     4.709332    16.169065 C    1 RES 0.0000
  1026 C1026      4.623888    31.052332    16.169065 C    1 RES 0.0000
  1027 C1027     30.966888     4.709332    16.169065 C    1 RES 0.0000
  1028 C1028     30.966888    31.052332    16.169065 C    1 RES 0.0000
  1029 C1029      8.547615     8.462160    16.169058 C    1 RES 0.0000
  1030 C1030      8.547614    17.880838    10.173943 C    1 RES 0.0000
  1031 C1031      4.623891    -4.709334    10.173938 C    1 RES 0.0000
  1032 C1032      4.623891    21.633666    10.173938 C    1 RES 0.0000
  1033 C1033     30.966891    -4.709334    10.173938 C    1 RES 0.0000
  1034 C1034     30.966891    21.633666    10.173938 C    1 RES 0.0000
  1035 C1035      2.932759    -4.700734     8.461221 C    1 RES 0.0000
  1036 C1036      2.932759    21.642266     8.461221 C    1 RES 0.0000
  1037 C1037     29.275759    -4.700734     8.461221 C    1 RES 0.0000
  1038 C1038     29.275759    21.642266     8.461221 C    1 RES 0.0000
  1039 C1039      2.932761     4.700715    17.881794 C    1 RES 0.0000
  1040 C1040      2.932761    31.043715    17.881794 C    1 RES 0.0000
  1041 C1041     29.275761     4.700715    17.881794 C    1 RES 0.0000
  1042 C1042     29.275761    31.043715    17.881794 C    1 RES 0.0000
  1043 C1043     10.238757    17.872238     8.461213 C    1 RES 0.0000
  1044 C1044     10.238745     8.470777    17.881790 C    1 RES 0.0000
  1045 C1045      3.540645     3.530106     7.949729 C    1 RES 0.0000
  1046 C1046      3.540645    29.873106     7.949729 C    1 RES 0.0000
  1047 C1047     29.883645     3.530106     7.949729 C    1 RES 0.0000
  1048 C1048     29.883645    29.873106     7.949729 C    1 RES 0.0000
  1049 C1049      9.630861    16.701611    18.393268 C    1 RES 0.0000
  1050 C1050      9.630878     9.641372     7.949731 C    1 RES 0.0000
  1051 C1051      3.540651    -3.530099    18.393270 C    1 RES 0.0000
  1052 C1052      3.540651    22.812901    18.393270 C    1 RES 0.0000
  1053 C1053     29.883651    -3.530099    18.393270 C    1 RES 0.0000
  1054 C1054     29.883651    22.812901    18.393270 C    1 RES 0.0000
  1055 C1055      3.575443    -5.267971    16.672155 C    1 RES 0.0000
  1056 C1056      3.575443    21.075029    16.672155 C    1 RES 0.0000
  1057 C1057     29.918443    -5.267971    16.672155 C    1 RES 0.0000
  1058 C1058     29.918443    21.075029    16.672155 C    1 RES 0.0000
  1059 C1059      3.575445     5.267973     9.670849 C    1 RES 0.0000
  1060 C1060      3.575445    31.610973     9.670849 C    1 RES 0.0000
  1061 C1061     29.918445     5.267973     9.670849 C    1 RES 0.0000
  1062 C1062     29.918445    31.610973     9.670849 C    1 RES 0.0000
  1063 C1063      9.596057     7.903524     9.670853 C    1 RES 0.0000
  1064 C1064      9.596060    18.439473    16.672154 C    1 RES 0.0000
  1065 C1065      7.895079    16.740300    16.676470 C    1 RES 0.0000
  1066 C1066      5.276425    -3.568785    16.676484 C    1 RES 0.0000
  1067 C1067      5.276425    22.774215    16.676484 C    1 RES 0.0000
  1068 C1068     31.619425    -3.568785    16.676484 C    1 RES 0.0000
  1069 C1069     31.619425    22.774215    16.676484 C    1 RES 0.0000
  1070 C1070      7.895084     9.602705     9.666522 C    1 RES 0.0000
  1071 C1071      5.276423     3.568780     9.666513 C    1 RES 0.0000
  1072 C1072      5.276423    29.911780     9.666513 C    1 RES 0.0000
  1073 C1073     31.619423     3.568780     9.666513 C    1 RES 0.0000
  1074 C1074     31.619423    29.911780     9.666513 C    1 RES 0.0000
  1075 C1075      7.949733     9.641382    16.712135 C    1 RES 0.0000
  1076 C1076      5.221767    -3.530105     9.630853 C    1 RES 0.0000
  1077 C1077      5.221767    22.812895     9.630853 C    1 RES 0.0000
  1078 C1078     31.564767    -3.530105     9.630853 C    1 RES 0.0000
  1079 C1079     31.564767    22.812895     9.630853 C    1 RES 0.0000
  1080 C1080      7.949735    16.701616     9.630865 C    1 RES 0.0000
  1081 C1081      5.221771     3.530105    16.712144 C    1 RES 0.0000
  1082 C1082      5.221771    29.873105    16.712144 C    1 RES 0.0000
  1083 C1083     31.564771     3.530105    16.712144 C    1 RES 0.0000
  1084 C1084     31.564771    29.873105    16.712144 C    1 RES 0.0000
  1085 C1085      3.500654     5.267969    16.746946 C    1 RES 0.0000
  1086 C1086      3.500654    31.610969    16.746946 C    1 RES 0.0000
  1087 C1087     29.843654     5.267969    16.746946 C    1 RES 0.0000
  1088 C1088     29.843654    31.610969    16.746946 C    1 RES 0.0000
  1089 C1089      9.670851     7.903527    16.746947 C    1 RES 0.0000
  1090 C1090      9.670853    18.439473     9.596053 C    1 RES 0.0000
  1091 C1091      3.500653    -5.267976     9.596061 C    1 RES 0.0000
  1092 C1092      3.500653    21.075024     9.596061 C    1 RES 0.0000
  1093 C1093     29.843653    -5.267976     9.596061 C    1 RES 0.0000
  1094 C1094     29.843653    21.075024     9.596061 C    1 RES 0.0000
  1095 C1095      3.504988    -3.568788     7.895085 C    1 RES 0.0000
  1096 C1096      3.504988    22.774212     7.895085 C    1 RES 0.0000
  1097 C1097     29.847988    -3.568788     7.895085 C    1 RES 0.0000
  1098 C1098     29.847988    22.774212     7.895085 C    1 RES 0.0000
  1099 C1099      3.504995     3.568775    18.447920 C    1 RES 0.0000
  1100 C1100      3.504995    29.911775    18.447920 C    1 RES 0.0000
  1101 C1101     29.847995     3.568775    18.447920 C    1 RES 0.0000
  1102 C1102     29.847995    29.911775    18.447920 C    1 RES 0.0000
  1103 C1103      9.666536    16.740301     7.895076 C    1 RES 0.0000
  1104 C1104      9.666521     9.602709    18.447922 C    1 RES 0.0000
  1105 C1105      5.442316    15.010991    -5.244744 C    1 RES 0.0000
  1106 C1106      5.442316    15.010991    21.098256 C    1 RES 0.0000
  1107 C1107     31.785316    15.010991    -5.244744 C    1 RES 0.0000
  1108 C1108     31.785316    15.010991    21.098256 C    1 RES 0.0000
  1109 C1109      7.729179     1.839478     5.244757 C    1 RES 0.0000
  1110 C1110      7.729179     1.839478    31.587757 C    1 RES 0.0000
  1111 C1111      7.729179    28.182478     5.244757 C    1 RES 0.0000
  1112 C1112      7.729179    28.182478    31.587757 C    1 RES 0.0000
  1113 C1113      7.729168    -1.839479    -5.244748 C    1 RES 0.0000
  1114 C1114      7.729168    -1.839479    21.098252 C    1 RES 0.0000
  1115 C1115      7.729168    24.503521    -5.244748 C    1 RES 0.0000
  1116 C1116      7.729168    24.503521    21.098252 C    1 RES 0.0000
  1117 C1117      5.442323    11.332009     5.244732 C    1 RES 0.0000
  1118 C1118      5.442323    11.332009    31.587732 C    1 RES 0.0000
  1119 C1119     31.785323    11.332009     5.244732 C    1 RES 0.0000
  1120 C1120     31.785323    11.332009    31.587732 C    1 RES 0.0000
  1121 C1121      1.859490     7.731811     5.241718 C    1 RES 0.0000
  1122 C1122      1.859490     7.731811    31.584718 C    1 RES 0.0000
  1123 C1123     28.202490     7.731811     5.241718 C    1 RES 0.0000
  1124 C1124     28.202490     7.731811    31.584718 C    1 RES 0.0000
  1125 C1125      1.859493    18.611186    -5.241719 C    1 RES 0.0000
  1126 C1126      1.859493    18.611186    21.101281 C    1 RES 0.0000
  1127 C1127     28.202493    18.611186    -5.241719 C    1 RES 0.0000
  1128 C1128     28.202493    18.611186    21.101281 C    1 RES 0.0000
  1129 C1129     11.312011    -5.439697    -5.241701 C    1 RES 0.0000
  1130 C1130     11.312011    -5.439697    21.101299 C    1 RES 0.0000
  1131 C1131     11.312011    20.903303    -5.241701 C    1 RES 0.0000
  1132 C1132     11.312011    20.903303    21.101299 C    1 RES 0.0000
  1133 C1133     11.312014     5.439699     5.241707 C    1 RES 0.0000
  1134 C1134     11.312014     5.439699    31.584707 C    1 RES 0.0000
  1135 C1135     11.312014    31.782699     5.241707 C    1 RES 0.0000
  1136 C1136     11.312014    31.782699    31.584707 C    1 RES 0.0000
  1137 C1137      7.804371     5.359698     1.777014 C    1 RES 0.0000
  1138 C1138      7.804371     5.359698    28.120014 C    1 RES 0.0000
  1139 C1139      7.804371    31.702698     1.777014 C    1 RES 0.0000
  1140 C1140      7.804371    31.702698    28.120014 C    1 RES 0.0000
  1141 C1141      5.367106     7.811762     1.777013 C    1 RES 0.0000
  1142 C1142      5.367106     7.811762    28.120013 C    1 RES 0.0000
  1143 C1143     31.710106     7.811762     1.777013 C    1 RES 0.0000
  1144 C1144     31.710106     7.811762    28.120013 C    1 RES 0.0000
  1145 C1145      7.804399    -5.359732    -1.777015 C    1 RES 0.0000
  1146 C1146      7.804399    -5.359732    24.565985 C    1 RES 0.0000
  1147 C1147      7.804399    20.983268    -1.777015 C    1 RES 0.0000
  1148 C1148      7.804399    20.983268    24.565985 C    1 RES 0.0000
  1149 C1149      5.367140    18.531202    -1.777019 C    1 RES 0.0000
  1150 C1150      5.367140    18.531202    24.565981 C    1 RES 0.0000
  1151 C1151     31.710140    18.531202    -1.777019 C    1 RES 0.0000
  1152 C1152     31.710140    18.531202    24.565981 C    1 RES 0.0000
  1153 C1153      7.926752    -1.839479     5.442329 C    1 RES 0.0000
  1154 C1154      7.926752    -1.839479    31.785329 C    1 RES 0.0000
  1155 C1155      7.926752    24.503521     5.442329 C    1 RES 0.0000
  1156 C1156      7.926752    24.503521    31.785329 C    1 RES 0.0000
  1157 C1157      5.244754    11.332009    -5.442306 C    1 RES 0.0000
  1158 C1158      5.244754    11.332009    20.900694 C    1 RES 0.0000
  1159 C1159     31.587754    11.332009    -5.442306 C    1 RES 0.0000
  1160 C1160     31.587754    11.332009    20.900694 C    1 RES 0.0000
  1161 C1161      7.926740     1.839477    -5.442320 C    1 RES 0.0000
  1162 C1162      7.926740     1.839477    20.900680 C    1 RES 0.0000
  1163 C1163      7.926740    28.182477    -5.442320 C    1 RES 0.0000
  1164 C1164      7.926740    28.182477    20.900680 C    1 RES 0.0000
  1165 C1165      5.244747    15.010991     5.442308 C    1 RES 0.0000
  1166 C1166      5.244747    15.010991    31.785308 C    1 RES 0.0000
  1167 C1167     31.587747    15.010991     5.442308 C    1 RES 0.0000
  1168 C1168     31.587747    15.010991    31.785308 C    1 RES 0.0000
  1169 C1169      5.241731    18.611176     1.859491 C    1 RES 0.0000
  1170 C1170      5.241731    18.611176    28.202491 C    1 RES 0.0000
  1171 C1171     31.584731    18.611176     1.859491 C    1 RES 0.0000
  1172 C1172     31.584731    18.611176    28.202491 C    1 RES 0.0000
  1173 C1173      7.929806    -5.439700     1.859490 C    1 RES 0.0000
  1174 C1174      7.929806    -5.439700    28.202490 C    1 RES 0.0000
  1175 C1175      7.929806    20.903300     1.859490 C    1 RES 0.0000
  1176 C1176      7.929806    20.903300    28.202490 C    1 RES 0.0000
  1177 C1177      7.929774     5.439669    -1.859492 C    1 RES 0.0000
  1178 C1178      7.929774     5.439669    24.483508 C    1 RES 0.0000
  1179 C1179      7.929774    31.782669    -1.859492 C    1 RES 0.0000
  1180 C1180      7.929774    31.782669    24.483508 C    1 RES 0.0000
  1181 C1181      5.241697     7.731792    -1.859497 C    1 RES 0.0000
  1182 C1182      5.241697     7.731792    24.483503 C    1 RES 0.0000
  1183 C1183     31.584697     7.731792    -1.859497 C    1 RES 0.0000
  1184 C1184     31.584697     7.731792    24.483503 C    1 RES 0.0000
  1185 C1185      1.777016     7.811768    -5.367107 C    1 RES 0.0000
  1186 C1186      1.777016     7.811768    20.975893 C    1 RES 0.0000
  1187 C1187     28.120016     7.811768    -5.367107 C    1 RES 0.0000
  1188 C1188     28.120016     7.811768    20.975893 C    1 RES 0.0000
  1189 C1189      1.777017    18.531217     5.367125 C    1 RES 0.0000
  1190 C1190      1.777017    18.531217    31.710125 C    1 RES 0.0000
  1191 C1191     28.120017    18.531217     5.367125 C    1 RES 0.0000
  1192 C1192     28.120017    18.531217    31.710125 C    1 RES 0.0000
  1193 C1193     11.394486     5.359712    -5.367122 C    1 RES 0.0000
  1194 C1194     11.394486     5.359712    20.975878 C    1 RES 0.0000
  1195 C1195     11.394486    31.702712    -5.367122 C    1 RES 0.0000
  1196 C1196     11.394486    31.702712    20.975878 C    1 RES 0.0000
  1197 C1197     11.394489    -5.359722     5.367113 C    1 RES 0.0000
  1198 C1198     11.394489    -5.359722    31.710113 C    1 RES 0.0000
  1199 C1199     11.394489    20.983278     5.367113 C    1 RES 0.0000
  1200 C1200     11.394489    20.983278    31.710113 C    1 RES 0.0000
  1201 C1201      4.722141    16.157276    -4.629642 C    1 RES 0.0000
  1202 C1202      4.722141    16.157276    21.713358 C    1 RES 0.0000
  1203 C1203     31.065141    16.157276    -4.629642 C    1 RES 0.0000
  1204 C1204     31.065141    16.157276    21.713358 C    1 RES 0.0000
  1205 C1205      8.449343     2.985763     4.629640 C    1 RES 0.0000
  1206 C1206      8.449343     2.985763    30.972640 C    1 RES 0.0000
  1207 C1207      8.449343    29.328763     4.629640 C    1 RES 0.0000
  1208 C1208      8.449343    29.328763    30.972640 C    1 RES 0.0000
  1209 C1209      8.449350    -2.985760    -4.629650 C    1 RES 0.0000
  1210 C1210      8.449350    -2.985760    21.713350 C    1 RES 0.0000
  1211 C1211      8.449350    23.357240    -4.629650 C    1 RES 0.0000
  1212 C1212      8.449350    23.357240    21.713350 C    1 RES 0.0000
  1213 C1213      4.722151    10.185719     4.629624 C    1 RES 0.0000
  1214 C1214      4.722151    10.185719    30.972624 C    1 RES 0.0000
  1215 C1215     31.065151    10.185719     4.629624 C    1 RES 0.0000
  1216 C1216     31.065151    10.185719    30.972624 C    1 RES 0.0000
  1217 C1217      2.997558     8.462160     4.623887 C    1 RES 0.0000
  1218 C1218      2.997558     8.462160    30.966887 C    1 RES 0.0000
  1219 C1219     29.340558     8.462160     4.623887 C    1 RES 0.0000
  1220 C1220     29.340558     8.462160    30.966887 C    1 RES 0.0000
  1221 C1221      2.997558    17.880838    -4.623889 C    1 RES 0.0000
  1222 C1222      2.997558    17.880838    21.719111 C    1 RES 0.0000
  1223 C1223     29.340558    17.880838    -4.623889 C    1 RES 0.0000
  1224 C1224     29.340558    17.880838    21.719111 C    1 RES 0.0000
  1225 C1225     10.173937    -4.709341    -4.623885 C    1 RES 0.0000
  1226 C1226     10.173937    -4.709341    21.719115 C    1 RES 0.0000
  1227 C1227     10.173937    21.633659    -4.623885 C    1 RES 0.0000
  1228 C1228     10.173937    21.633659    21.719115 C    1 RES 0.0000
  1229 C1229     10.173941     4.709332     4.623898 C    1 RES 0.0000
  1230 C1230     10.173941     4.709332    30.966898 C    1 RES 0.0000
  1231 C1231     10.173941    31.052332     4.623898 C    1 RES 0.0000
  1232 C1232     10.173941    31.052332    30.966898 C    1 RES 0.0000
  1233 C1233      8.461222     4.700732     2.932763 C    1 RES 0.0000
  1234 C1234      8.461222     4.700732    29.275763 C    1 RES 0.0000
  1235 C1235      8.461222    31.043732     2.932763 C    1 RES 0.0000
  1236 C1236      8.461222    31.043732    29.275763 C    1 RES 0.0000
  1237 C1237      4.710288     8.470767     2.932746 C    1 RES 0.0000
  1238 C1238      4.710288     8.470767    29.275746 C    1 RES 0.0000
  1239 C1239     31.053288     8.470767     2.932746 C    1 RES 0.0000
  1240 C1240     31.053288     8.470767    29.275746 C    1 RES 0.0000
  1241 C1241      8.461218    -4.700728    -2.932760 C    1 RES 0.0000
  1242 C1242      8.461218    -4.700728    23.410240 C    1 RES 0.0000
  1243 C1243      8.461218    21.642272    -2.932760 C    1 RES 0.0000
  1244 C1244      8.461218    21.642272    23.410240 C    1 RES 0.0000
  1245 C1245      4.710295    17.872218    -2.932755 C    1 RES 0.0000
  1246 C1246      4.710295    17.872218    23.410245 C    1 RES 0.0000
  1247 C1247     31.053295    17.872218    -2.932755 C    1 RES 0.0000
  1248 C1248     31.053295    17.872218    23.410245 C    1 RES 0.0000
  1249 C1249      8.541856    -2.985764     4.722152 C    1 RES 0.0000
  1250 C1250      8.541856    -2.985764    31.065152 C    1 RES 0.0000
  1251 C1251      8.541856    23.357236     4.722152 C    1 RES 0.0000
  1252 C1252      8.541856    23.357236    31.065152 C    1 RES 0.0000
  1253 C1253      4.629635    10.185722    -4.722146 C    1 RES 0.0000
  1254 C1254      4.629635    10.185722    21.620854 C    1 RES 0.0000
  1255 C1255     30.972635    10.185722    -4.722146 C    1 RES 0.0000
  1256 C1256     30.972635    10.185722    21.620854 C    1 RES 0.0000
  1257 C1257      8.541854     2.985757    -4.722157 C    1 RES 0.0000
  1258 C1258      8.541854     2.985757    21.620843 C    1 RES 0.0000
  1259 C1259      8.541854    29.328757    -4.722157 C    1 RES 0.0000
  1260 C1260      8.541854    29.328757    21.620843 C    1 RES 0.0000
  1261 C1261      4.629648    16.157281     4.722128 C    1 RES 0.0000
  1262 C1262      4.629648    16.157281    31.065128 C    1 RES 0.0000
  1263 C1263     30.972648    16.157281     4.722128 C    1 RES 0.0000
  1264 C1264     30.972648    16.157281    31.065128 C    1 RES 0.0000
  1265 C1265      4.623894    17.880837     2.997552 C    1 RES 0.0000
  1266 C1266      4.623894    17.880837    29.340552 C    1 RES 0.0000
  1267 C1267     30.966894    17.880837     2.997552 C    1 RES 0.0000
  1268 C1268     30.966894    17.880837    29.340552 C    1 RES 0.0000
  1269 C1269      8.547613    -4.709338     2.997563 C    1 RES 0.0000
  1270 C1270      8.547613    -4.709338    29.340563 C    1 RES 0.0000
  1271 C1271      8.547613    21.633662     2.997563 C    1 RES 0.0000
  1272 C1272      8.547613    21.633662    29.340563 C    1 RES 0.0000
  1273 C1273      8.547616     4.709337    -2.997566 C    1 RES 0.0000
  1274 C1274      8.547616     4.709337    23.345434 C    1 RES 0.0000
  1275 C1275      8.547616    31.052337    -2.997566 C    1 RES 0.0000
  1276 C1276      8.547616    31.052337    23.345434 C    1 RES 0.0000
  1277 C1277      4.623903     8.462175    -2.997555 C    1 RES 0.0000
  1278 C1278      4.623903     8.462175    23.345445 C    1 RES 0.0000
  1279 C1279     30.966903     8.462175    -2.997555 C    1 RES 0.0000
  1280 C1280     30.966903     8.462175    23.345445 C    1 RES 0.0000
  1281 C1281      2.932758     8.470761    -4.710273 C    1 RES 0.0000
  1282 C1282      2.932758     8.470761    21.632727 C    1 RES 0.0000
  1283 C1283     29.275758     8.470761    -4.710273 C    1 RES 0.0000
  1284 C1284     29.275758     8.470761    21.632727 C    1 RES 0.0000
  1285 C1285      2.932754    17.872224     4.710290 C    1 RES 0.0000
  1286 C1286      2.932754    17.872224    31.053290 C    1 RES 0.0000
  1287 C1287     29.275754    17.872224     4.710290 C    1 RES 0.0000
  1288 C1288     29.275754    17.872224    31.053290 C    1 RES 0.0000
  1289 C1289     10.238741     4.700725    -4.710288 C    1 RES 0.0000
  1290 C1290     10.238741     4.700725    21.632712 C    1 RES 0.0000
  1291 C1291     10.238741    31.043725    -4.710288 C    1 RES 0.0000
  1292 C1292     10.238741    31.043725    21.632712 C    1 RES 0.0000
  1293 C1293     10.238742    -4.700732     4.710282 C    1 RES 0.0000
  1294 C1294     10.238742    -4.700732    31.053282 C    1 RES 0.0000
  1295 C1295     10.238742    21.642268     4.710282 C    1 RES 0.0000
  1296 C1296     10.238742    21.642268    31.053282 C    1 RES 0.0000
  1297 C1297      3.540636    16.701620    -5.221764 C    1 RES 0.0000
  1298 C1298      3.540636    16.701620    21.121236 C    1 RES 0.0000
  1299 C1299     29.883636    16.701620    -5.221764 C    1 RES 0.0000
  1300 C1300     29.883636    16.701620    21.121236 C    1 RES 0.0000
  1301 C1301      9.630851     3.530103     5.221768 C    1 RES 0.0000
  1302 C1302      9.630851     3.530103    31.564768 C    1 RES 0.0000
  1303 C1303      9.630851    29.873103     5.221768 C    1 RES 0.0000
  1304 C1304      9.630851    29.873103    31.564768 C    1 RES 0.0000
  1305 C1305      9.630859    -3.530109    -5.221771 C    1 RES 0.0000
  1306 C1306      9.630859    -3.530109    21.121229 C    1 RES 0.0000
  1307 C1307      9.630859    22.812891    -5.221771 C    1 RES 0.0000
  1308 C1308      9.630859    22.812891    21.121229 C    1 RES 0.0000
  1309 C1309      3.540636     9.641387     5.221769 C    1 RES 0.0000
  1310 C1310      3.540636     9.641387    31.564769 C    1 RES 0.0000
  1311 C1311     29.883636     9.641387     5.221769 C    1 RES 0.0000
  1312 C1312     29.883636     9.641387    31.564769 C    1 RES 0.0000
  1313 C1313      3.575448     7.903528     3.500648 C    1 RES 0.0000
  1314 C1314      3.575448     7.903528    29.843648 C    1 RES 0.0000
  1315 C1315     29.918448     7.903528     3.500648 C    1 RES 0.0000
  1316 C1316     29.918448     7.903528    29.843648 C    1 RES 0.0000
  1317 C1317      3.575453    18.439468    -3.500647 C    1 RES 0.0000
  1318 C1318      3.575453    18.439468    22.842353 C    1 RES 0.0000
  1319 C1319     29.918453    18.439468    -3.500647 C    1 RES 0.0000
  1320 C1320     29.918453    18.439468    22.842353 C    1 RES 0.0000
  1321 C1321      9.596057    -5.267977    -3.500651 C    1 RES 0.0000
  1322 C1322      9.596057    -5.267977    22.842349 C    1 RES 0.0000
  1323 C1323      9.596057    21.075023    -3.500651 C    1 RES 0.0000
  1324 C1324      9.596057    21.075023    22.842349 C    1 RES 0.0000
  1325 C1325      9.596064     5.267976     3.500659 C    1 RES 0.0000
  1326 C1326      9.596064     5.267976    29.843659 C    1 RES 0.0000
  1327 C1327      9.596064    31.610976     3.500659 C    1 RES 0.0000
  1328 C1328      9.596064    31.610976    29.843659 C    1 RES 0.0000
  1329 C1329      7.895081     3.568789     3.504985 C    1 RES 0.0000
  1330 C1330      7.895081     3.568789    29.847985 C    1 RES 0.0000
  1331 C1331      7.895081    29.911789     3.504985 C    1 RES 0.0000
  1332 C1332      7.895081    29.911789    29.847985 C    1 RES 0.0000
  1333 C1333      5.276427     9.602702     3.504967 C    1 RES 0.0000
  1334 C1334      5.276427     9.602702    29.847967 C    1 RES 0.0000
  1335 C1335     31.619427     9.602702     3.504967 C    1 RES 0.0000
  1336 C1336     31.619427     9.602702    29.847967 C    1 RES 0.0000
  1337 C1337      7.895082    -3.568787    -3.504989 C    1 RES 0.0000
  1338 C1338      7.895082    -3.568787    22.838011 C    1 RES 0.0000
  1339 C1339      7.895082    22.774213    -3.504989 C    1 RES 0.0000
  1340 C1340      7.895082    22.774213    22.838011 C    1 RES 0.0000
  1341 C1341      5.276429    16.740289    -3.504976 C    1 RES 0.0000
  1342 C1342      5.276429    16.740289    22.838024 C    1 RES 0.0000
  1343 C1343     31.619429    16.740289    -3.504976 C    1 RES 0.0000
  1344 C1344     31.619429    16.740289    22.838024 C    1 RES 0.0000
  1345 C1345      7.949732    -3.530109     3.540644 C    1 RES 0.0000
  1346 C1346      7.949732    -3.530109    29.883644 C    1 RES 0.0000
  1347 C1347      7.949732    22.812891     3.540644 C    1 RES 0.0000
  1348 C1348      7.949732    22.812891    29.883644 C    1 RES 0.0000
  1349 C1349      5.221770     9.641393    -3.540643 C    1 RES 0.0000
  1350 C1350      5.221770     9.641393    22.802357 C    1 RES 0.0000
  1351 C1351     31.564770     9.641393    -3.540643 C    1 RES 0.0000
  1352 C1352     31.564770     9.641393    22.802357 C    1 RES 0.0000
  1353 C1353      7.949730     3.530106    -3.540645 C    1 RES 0.0000
  1354 C1354      7.949730     3.530106    22.802355 C    1 RES 0.0000
  1355 C1355      7.949730    29.873106    -3.540645 C    1 RES 0.0000
  1356 C1356      7.949730    29.873106    22.802355 C    1 RES 0.0000
  1357 C1357      5.221768    16.701622     3.540628 C    1 RES 0.0000
  1358 C1358      5.221768    16.701622    29.883628 C    1 RES 0.0000
  1359 C1359     31.564768    16.701622     3.540628 C    1 RES 0.0000
  1360 C1360     31.564768    16.701622    29.883628 C    1 RES 0.0000
  1361 C1361      3.500650    18.439467     3.575449 C    1 RES 0.0000
  1362 C1362      3.500650    18.439467    29.918449 C    1 RES 0.0000
  1363 C1363     29.843650    18.439467     3.575449 C    1 RES 0.0000
  1364 C1364     29.843650    18.439467    29.918449 C    1 RES 0.0000
  1365 C1365      9.670848    -5.267977     3.575441 C    1 RES 0.0000
  1366 C1366      9.670848    -5.267977    29.918441 C    1 RES 0.0000
  1367 C1367      9.670848    21.075023     3.575441 C    1 RES 0.0000
  1368 C1368      9.670848    21.075023    29.918441 C    1 RES 0.0000
  1369 C1369      9.670851     5.267974    -3.575447 C    1 RES 0.0000
  1370 C1370      9.670851     5.267974    22.767553 C    1 RES 0.0000
  1371 C1371      9.670851    31.610974    -3.575447 C    1 RES 0.0000
  1372 C1372      9.670851    31.610974    22.767553 C    1 RES 0.0000
  1373 C1373      3.500664     7.903527    -3.575432 C    1 RES 0.0000
  1374 C1374      3.500664     7.903527    22.767568 C    1 RES 0.0000
  1375 C1375     29.843664     7.903527    -3.575432 C    1 RES 0.0000
  1376 C1376     29.843664     7.903527    22.767568 C    1 RES 0.0000
  1377 C1377      3.504969     9.602696    -5.276419 C    1 RES 0.0000
  1378 C1378      3.504969     9.602696    21.066581 C    1 RES 0.0000
  1379 C1379     29.847969     9.602696    -5.276419 C    1 RES 0.0000
  1380 C1380     29.847969     9.602696    21.066581 C    1 RES 0.0000
  1381 C1381      3.504980    16.740289     5.276421 C    1 RES 0.0000
  1382 C1382      3.504980    16.740289    31.619421 C    1 RES 0.0000
  1383 C1383     29.847980    16.740289     5.276421 C    1 RES 0.0000
  1384 C1384     29.847980    16.740289    31.619421 C    1 RES 0.0000
  1385 C1385      9.666515     3.568785    -5.276424 C    1 RES 0.0000
  1386 C1386      9.666515     3.568785    21.066576 C    1 RES 0.0000
  1387 C1387      9.666515    29.911785    -5.276424 C    1 RES 0.0000
  1388 C1388      9.666515    29.911785    21.066576 C    1 RES 0.0000
  1389 C1389      9.666514    -3.568788     5.276419 C    1 RES 0.0000
  1390 C1390      9.666514    -3.568788    31.619419 C    1 RES 0.0000
  1391 C1391      9.666514    22.774212     5.276419 C    1 RES 0.0000
  1392 C1392      9.666514    22.774212    31.619419 C    1 RES 0.0000
  1393 N1393     16.142516     2.965881    20.064608 N    1 RES 0.0000
  1394 N1394     16.142516    29.308881    20.064608 N    1 RES 0.0000
  1395 N1395     -2.971013    16.137382     6.278393 N    1 RES 0.0000
  1396 N1396     23.371987    16.137382     6.278393 N    1 RES 0.0000
  1397 N1397     -2.971011    10.205616    20.064607 N    1 RES 0.0000
  1398 N1398     23.371989    10.205616    20.064607 N    1 RES 0.0000
  1399 N1399     16.142514    -2.965883     6.278392 N    1 RES 0.0000
  1400 N1400     16.142514    23.377117     6.278392 N    1 RES 0.0000
  1401 N1401     20.064615    10.205607     2.971010 N    1 RES 0.0000
  1402 N1402     20.064615    10.205607    29.314010 N    1 RES 0.0000
  1403 N1403     19.449880    -2.965886    -2.971019 N    1 RES 0.0000
  1404 N1404     19.449880    -2.965886    23.371981 N    1 RES 0.0000
  1405 N1405     19.449880    23.377114    -2.971019 N    1 RES 0.0000
  1406 N1406     19.449880    23.377114    23.371981 N    1 RES 0.0000
  1407 N1407     20.064617    16.137384    -2.971016 N    1 RES 0.0000
  1408 N1408     20.064617    16.137384    23.371984 N    1 RES 0.0000
  1409 N1409     19.449885     2.965885     2.971018 N    1 RES 0.0000
  1410 N1410     19.449885     2.965885    29.314018 N    1 RES 0.0000
  1411 N1411     19.449885    29.308885     2.971018 N    1 RES 0.0000
  1412 N1412     19.449885    29.308885    29.314018 N    1 RES 0.0000
  1413 N1413     16.142516    16.137386     6.893114 N    1 RES 0.0000
  1414 N1414     -2.971019     2.965885    19.449886 N    1 RES 0.0000
  1415 N1415     -2.971019    29.308885    19.449886 N    1 RES 0.0000
  1416 N1416     23.371981     2.965885    19.449886 N    1 RES 0.0000
  1417 N1417     23.371981    29.308885    19.449886 N    1 RES 0.0000
  1418 N1418     -2.971014    -2.965892     6.893117 N    1 RES 0.0000
  1419 N1419     -2.971014    23.377108     6.893117 N    1 RES 0.0000
  1420 N1420     23.371986    -2.965892     6.893117 N    1 RES 0.0000
  1421 N1421     23.371986    23.377108     6.893117 N    1 RES 0.0000
  1422 N1422     16.142511    10.205615    19.449889 N    1 RES 0.0000
  1423 N1423     20.064613    -2.965889    16.142508 N    1 RES 0.0000
  1424 N1424     20.064613    23.377111    16.142508 N    1 RES 0.0000
  1425 N1425     19.449891    10.205613    10.200489 N    1 RES 0.0000
  1426 N1426     20.064608     2.965880    10.200483 N    1 RES 0.0000
  1427 N1427     20.064608    29.308880    10.200483 N    1 RES 0.0000
  1428 N1428     19.449882    16.137383    16.142518 N    1 RES 0.0000
  1429 N1429      2.971016     2.965886     6.893115 N    1 RES 0.0000
  1430 N1430      2.971016    29.308886     6.893115 N    1 RES 0.0000
  1431 N1431     29.314016     2.965886     6.893115 N    1 RES 0.0000
  1432 N1432     29.314016    29.308886     6.893115 N    1 RES 0.0000
  1433 N1433     10.200492    16.137385    19.449891 N    1 RES 0.0000
  1434 N1434     10.200489    10.205614     6.893111 N    1 RES 0.0000
  1435 N1435      2.971011    -2.965887    19.449884 N    1 RES 0.0000
  1436 N1436      2.971011    23.377113    19.449884 N    1 RES 0.0000
  1437 N1437     29.314011    -2.965887    19.449884 N    1 RES 0.0000
  1438 N1438     29.314011    23.377113    19.449884 N    1 RES 0.0000
  1439 N1439      6.893110    10.205614    16.142506 N    1 RES 0.0000
  1440 N1440      6.278395    -2.965891    10.200497 N    1 RES 0.0000
  1441 N1441      6.278395    23.377109    10.200497 N    1 RES 0.0000
  1442 N1442      6.893112    16.137381    10.200484 N    1 RES 0.0000
  1443 N1443      6.278391     2.965881    16.142511 N    1 RES 0.0000
  1444 N1444      6.278391    29.308881    16.142511 N    1 RES 0.0000
  1445 N1445      2.971009    16.137381    20.064608 N    1 RES 0.0000
  1446 N1446     29.314009    16.137381    20.064608 N    1 RES 0.0000
  1447 N1447     10.200491     2.965887     6.278389 N    1 RES 0.0000
  1448 N1448     10.200491    29.308887     6.278389 N    1 RES 0.0000
  1449 N1449     10.200488    -2.965884    20.064611 N    1 RES 0.0000
  1450 N1450     10.200488    23.377116    20.064611 N    1 RES 0.0000
  1451 N1451      2.971012    10.205616     6.278384 N    1 RES 0.0000
  1452 N1452     29.314012    10.205616     6.278384 N    1 RES 0.0000
  1453 N1453      6.893110    -2.965885     2.971016 N    1 RES 0.0000
  1454 N1454      6.893110    -2.965885    29.314016 N    1 RES 0.0000
  1455 N1455      6.893110    23.377115     2.971016 N    1 RES 0.0000
  1456 N1456      6.893110    23.377115    29.314016 N    1 RES 0.0000
  1457 N1457      6.278392    10.205614    -2.971005 N    1 RES 0.0000
  1458 N1458      6.278392    10.205614    23.371995 N    1 RES 0.0000
  1459 N1459      6.893115     2.965881    -2.971019 N    1 RES 0.0000
  1460 N1460      6.893115     2.965881    23.371981 N    1 RES 0.0000
  1461 N1461      6.893115    29.308881    -2.971019 N    1 RES 0.0000
  1462 N1462      6.893115    29.308881    23.371981 N    1 RES 0.0000
  1463 N1463      6.278396    16.137379     2.971015 N    1 RES 0.0000
  1464 N1464      6.278396    16.137379    29.314015 N    1 RES 0.0000
  1465 O1465     18.118412     1.359999    20.037780 O    1 RES 0.0000
  1466 O1466     18.118412    27.702999    20.037780 O    1 RES 0.0000
  1467 O1467     -4.946930    14.531473     6.305243 O    1 RES 0.0000
  1468 O1468     21.396070    14.531473     6.305243 O    1 RES 0.0000
  1469 O1469     -4.946903    11.811499    20.037782 O    1 RES 0.0000
  1470 O1470     21.396097    11.811499    20.037782 O    1 RES 0.0000
  1471 O1471     18.118412    -1.360004     6.305216 O    1 RES 0.0000
  1472 O1472     18.118412    24.982996     6.305216 O    1 RES 0.0000
  1473 O1473     14.660406    19.845072     4.688480 O    1 RES 0.0000
  1474 O1474     14.660406    19.845072    31.031480 O    1 RES 0.0000
  1475 O1475     14.660403     6.497948    -4.688461 O    1 RES 0.0000
  1476 O1476     14.660403     6.497948    21.654539 O    1 RES 0.0000
  1477 O1477     -1.488882     6.673537    -4.688483 O    1 RES 0.0000
  1478 O1478     -1.488882     6.673537    21.654517 O    1 RES 0.0000
  1479 O1479     24.854118     6.673537    -4.688483 O    1 RES 0.0000
  1480 O1480     24.854118     6.673537    21.654517 O    1 RES 0.0000
  1481 O1481     -1.488926    19.669445     4.688443 O    1 RES 0.0000
  1482 O1482     -1.488926    19.669445    31.031443 O    1 RES 0.0000
  1483 O1483     24.854074    19.669445     4.688443 O    1 RES 0.0000
  1484 O1484     24.854074    19.669445    31.031443 O    1 RES 0.0000
  1485 O1485     19.928821    17.993431     1.348123 O    1 RES 0.0000
  1486 O1486     19.928821    17.993431    27.691123 O    1 RES 0.0000
  1487 O1487     19.585697    -4.821950     1.348098 O    1 RES 0.0000
  1488 O1488     19.585697    -4.821950    27.691098 O    1 RES 0.0000
  1489 O1489     19.585697    21.521050     1.348098 O    1 RES 0.0000
  1490 O1490     19.585697    21.521050    27.691098 O    1 RES 0.0000
  1491 O1491     19.928826     8.349575    -1.348120 O    1 RES 0.0000
  1492 O1492     19.928826     8.349575    24.994880 O    1 RES 0.0000
  1493 O1493     19.585702     4.821961    -1.348088 O    1 RES 0.0000
  1494 O1494     19.585702     4.821961    24.994912 O    1 RES 0.0000
  1495 O1495     19.585702    31.164961    -1.348088 O    1 RES 0.0000
  1496 O1496     19.585702    31.164961    24.994912 O    1 RES 0.0000
  1497 O1497     20.037783    11.811500     4.946909 O    1 RES 0.0000
  1498 O1498     20.037783    11.811500    31.289909 O    1 RES 0.0000
  1499 O1499     19.476752    -1.359976    -4.946913 O    1 RES 0.0000
  1500 O1500     19.476752    -1.359976    21.396087 O    1 RES 0.0000
  1501 O1501     19.476752    24.983024    -4.946913 O    1 RES 0.0000
  1502 O1502     19.476752    24.983024    21.396087 O    1 RES 0.0000
  1503 O1503     20.037785    14.531506    -4.946910 O    1 RES 0.0000
  1504 O1504     20.037785    14.531506    21.396090 O    1 RES 0.0000
  1505 O1505     19.476753     1.359986     4.946905 O    1 RES 0.0000
  1506 O1506     19.476753     1.359986    31.289905 O    1 RES 0.0000
  1507 O1507     19.476753    27.702986     4.946905 O    1 RES 0.0000
  1508 O1508     19.476753    27.702986    31.289905 O    1 RES 0.0000
  1509 O1509     17.859951     6.497926     1.488929 O    1 RES 0.0000
  1510 O1510     17.859951     6.497926    27.831929 O    1 RES 0.0000
  1511 O1511     -4.688491     6.673546     1.488885 O    1 RES 0.0000
  1512 O1512     -4.688491     6.673546    27.831885 O    1 RES 0.0000
  1513 O1513     21.654509     6.673546     1.488885 O    1 RES 0.0000
  1514 O1514     21.654509     6.673546    27.831885 O    1 RES 0.0000
  1515 O1515     -4.688477    19.669456    -1.488891 O    1 RES 0.0000
  1516 O1516     -4.688477    19.669456    24.854109 O    1 RES 0.0000
  1517 O1517     21.654523    19.669456    -1.488891 O    1 RES 0.0000
  1518 O1518     21.654523    19.669456    24.854109 O    1 RES 0.0000
  1519 O1519     17.859966    19.845078    -1.488917 O    1 RES 0.0000
  1520 O1520     17.859966    19.845078    24.854083 O    1 RES 0.0000
  1521 O1521     14.519619    -4.821927    19.928832 O    1 RES 0.0000
  1522 O1522     14.519619    21.521073    19.928832 O    1 RES 0.0000
  1523 O1523     14.519600     4.821943     6.414202 O    1 RES 0.0000
  1524 O1524     14.519600    31.164943     6.414202 O    1 RES 0.0000
  1525 O1525     -1.348110    17.993450    19.928828 O    1 RES 0.0000
  1526 O1526     24.994890    17.993450    19.928828 O    1 RES 0.0000
  1527 O1527     -1.348110     8.349556     6.414191 O    1 RES 0.0000
  1528 O1528     24.994890     8.349556     6.414191 O    1 RES 0.0000
  1529 O1529     -4.696136    11.724416     6.495128 O    1 RES 0.0000
  1530 O1530     21.646864    11.724416     6.495128 O    1 RES 0.0000
  1531 O1531     17.867609    -1.447118    19.847896 O    1 RES 0.0000
  1532 O1532     17.867609    24.895882    19.847896 O    1 RES 0.0000
  1533 O1533     17.867616     1.447119     6.495101 O    1 RES 0.0000
  1534 O1534     17.867616    27.790119     6.495101 O    1 RES 0.0000
  1535 O1535     -4.696098    14.618617    19.847886 O    1 RES 0.0000
  1536 O1536     21.646902    14.618617    19.847886 O    1 RES 0.0000
  1537 O1537     -1.364584    19.580098    -4.816432 O    1 RES 0.0000
  1538 O1538     -1.364584    19.580098    21.526568 O    1 RES 0.0000
  1539 O1539     24.978416    19.580098    -4.816432 O    1 RES 0.0000
  1540 O1540     24.978416    19.580098    21.526568 O    1 RES 0.0000
  1541 O1541     -1.364585     6.762914     4.816445 O    1 RES 0.0000
  1542 O1542     -1.364585     6.762914    31.159445 O    1 RES 0.0000
  1543 O1543     24.978415     6.762914     4.816445 O    1 RES 0.0000
  1544 O1544     24.978415     6.762914    31.159445 O    1 RES 0.0000
  1545 O1545     14.536102     6.408561     4.816436 O    1 RES 0.0000
  1546 O1546     14.536102     6.408561    31.159436 O    1 RES 0.0000
  1547 O1547     14.536077    19.934414    -4.816445 O    1 RES 0.0000
  1548 O1548     14.536077    19.934414    21.526555 O    1 RES 0.0000
  1549 O1549     19.474691    -4.953889    -1.377184 O    1 RES 0.0000
  1550 O1550     19.474691    -4.953889    24.965816 O    1 RES 0.0000
  1551 O1551     19.474691    21.389111    -1.377184 O    1 RES 0.0000
  1552 O1552     19.474691    21.389111    24.965816 O    1 RES 0.0000
  1553 O1553     20.039837    18.125389    -1.377205 O    1 RES 0.0000
  1554 O1554     20.039837    18.125389    24.965795 O    1 RES 0.0000
  1555 O1555     19.474687     4.953900     1.377190 O    1 RES 0.0000
  1556 O1556     19.474687     4.953900    27.720190 O    1 RES 0.0000
  1557 O1557     19.474687    31.296900     1.377190 O    1 RES 0.0000
  1558 O1558     19.474687    31.296900    27.720190 O    1 RES 0.0000
  1559 O1559     20.039833     8.217625     1.377211 O    1 RES 0.0000
  1560 O1560     20.039833     8.217625    27.720211 O    1 RES 0.0000
  1561 O1561     19.666635     1.447089    -4.696120 O    1 RES 0.0000
  1562 O1562     19.666635     1.447089    21.646880 O    1 RES 0.0000
  1563 O1563     19.666635    27.790089    -4.696120 O    1 RES 0.0000
  1564 O1564     19.666635    27.790089    21.646880 O    1 RES 0.0000
  1565 O1565     19.847897    14.618625     4.696100 O    1 RES 0.0000
  1566 O1566     19.847897    14.618625    31.039100 O    1 RES 0.0000
  1567 O1567     19.666633    -1.447092     4.696118 O    1 RES 0.0000
  1568 O1568     19.666633    -1.447092    31.039118 O    1 RES 0.0000
  1569 O1569     19.666633    24.895908     4.696118 O    1 RES 0.0000
  1570 O1570     19.666633    24.895908    31.039118 O    1 RES 0.0000
  1571 O1571     19.847887    11.724380    -4.696099 O    1 RES 0.0000
  1572 O1572     19.847887    11.724380    21.646901 O    1 RES 0.0000
  1573 O1573     -4.816459     6.762902    -1.364566 O    1 RES 0.0000
  1574 O1574     -4.816459     6.762902    24.978434 O    1 RES 0.0000
  1575 O1575     21.526541     6.762902    -1.364566 O    1 RES 0.0000
  1576 O1576     21.526541     6.762902    24.978434 O    1 RES 0.0000
  1577 O1577     17.987932     6.408569    -1.364595 O    1 RES 0.0000
  1578 O1578     17.987932     6.408569    24.978405 O    1 RES 0.0000
  1579 O1579     17.987937    19.934430     1.364597 O    1 RES 0.0000
  1580 O1580     17.987937    19.934430    27.707597 O    1 RES 0.0000
  1581 O1581     -4.816454    19.580096     1.364574 O    1 RES 0.0000
  1582 O1582     -4.816454    19.580096    27.707574 O    1 RES 0.0000
  1583 O1583     21.526546    19.580096     1.364574 O    1 RES 0.0000
  1584 O1584     21.526546    19.580096    27.707574 O    1 RES 0.0000
  1585 O1585     -1.377192    18.125410     6.303184 O    1 RES 0.0000
  1586 O1586     24.965808    18.125410     6.303184 O    1 RES 0.0000
  1587 O1587     -1.377214     8.217619    20.039847 O    1 RES 0.0000
  1588 O1588     24.965786     8.217619    20.039847 O    1 RES 0.0000
  1589 O1589     14.548700    -4.953876     6.303178 O    1 RES 0.0000
  1590 O1590     14.548700    21.389124     6.303178 O    1 RES 0.0000
  1591 O1591     14.548702     4.953890    20.039841 O    1 RES 0.0000
  1592 O1592     14.548702    31.296890    20.039841 O    1 RES 0.0000
  1593 O1593     18.118410    14.531500     6.866282 O    1 RES 0.0000
  1594 O1594     -4.946910     1.359978    19.476754 O    1 RES 0.0000
  1595 O1595     -4.946910    27.702978    19.476754 O    1 RES 0.0000
  1596 O1596     21.396090     1.359978    19.476754 O    1 RES 0.0000
  1597 O1597     21.396090    27.702978    19.476754 O    1 RES 0.0000
  1598 O1598     -4.946904    -1.359986     6.866247 O    1 RES 0.0000
  1599 O1599     -4.946904    24.983014     6.866247 O    1 RES 0.0000
  1600 O1600     21.396096    -1.359986     6.866247 O    1 RES 0.0000
  1601 O1601     21.396096    24.983014     6.866247 O    1 RES 0.0000
  1602 O1602     18.118409    11.811497    19.476715 O    1 RES 0.0000
  1603 O1603     14.660421     6.673577    17.859972 O    1 RES 0.0000
  1604 O1604     14.660419    19.669442     8.483037 O    1 RES 0.0000
  1605 O1605     -1.488882    19.845063     8.482990 O    1 RES 0.0000
  1606 O1606     24.854118    19.845063     8.482990 O    1 RES 0.0000
  1607 O1607     -1.488934     6.497910    17.859962 O    1 RES 0.0000
  1608 O1608     24.854066     6.497910    17.859962 O    1 RES 0.0000
  1609 O1609     19.928831     4.821935    14.519618 O    1 RES 0.0000
  1610 O1610     19.928831    31.164935    14.519618 O    1 RES 0.0000
  1611 O1611     19.585698     8.349557    14.519595 O    1 RES 0.0000
  1612 O1612     19.928805    -4.821912    11.823381 O    1 RES 0.0000
  1613 O1613     19.928805    21.521088    11.823381 O    1 RES 0.0000
  1614 O1614     19.585676    17.993462    11.823393 O    1 RES 0.0000
  1615 O1615     20.037788    -1.360002    18.118414 O    1 RES 0.0000
  1616 O1616     20.037788    24.982998    18.118414 O    1 RES 0.0000
  1617 O1617     19.476741    11.811523     8.224567 O    1 RES 0.0000
  1618 O1618     20.037784     1.360010     8.224584 O    1 RES 0.0000
  1619 O1619     20.037784    27.703010     8.224584 O    1 RES 0.0000
  1620 O1620     19.476717    14.531503    18.118406 O    1 RES 0.0000
  1621 O1621     17.859943    19.669457    14.660414 O    1 RES 0.0000
  1622 O1622     -4.688495    19.845081    14.660397 O    1 RES 0.0000
  1623 O1623     21.654505    19.845081    14.660397 O    1 RES 0.0000
  1624 O1624     -4.688479     6.497941    11.682599 O    1 RES 0.0000
  1625 O1625     21.654521     6.497941    11.682599 O    1 RES 0.0000
  1626 O1626     17.859965     6.673567    11.682578 O    1 RES 0.0000
  1627 O1627     14.519622     8.349573     6.757327 O    1 RES 0.0000
  1628 O1628     14.519601    17.993447    19.585700 O    1 RES 0.0000
  1629 O1629     -1.348111     4.821937     6.757314 O    1 RES 0.0000
  1630 O1630     -1.348111    31.164937     6.757314 O    1 RES 0.0000
  1631 O1631     24.994889     4.821937     6.757314 O    1 RES 0.0000
  1632 O1632     24.994889    31.164937     6.757314 O    1 RES 0.0000
  1633 O1633     -1.348110    -4.821926    19.585698 O    1 RES 0.0000
  1634 O1634     -1.348110    21.521074    19.585698 O    1 RES 0.0000
  1635 O1635     24.994890    -4.821926    19.585698 O    1 RES 0.0000
  1636 O1636     24.994890    21.521074    19.585698 O    1 RES 0.0000
  1637 O1637     -4.696115    -1.447089    19.666640 O    1 RES 0.0000
  1638 O1638     -4.696115    24.895911    19.666640 O    1 RES 0.0000
  1639 O1639     21.646885    -1.447089    19.666640 O    1 RES 0.0000
  1640 O1640     21.646885    24.895911    19.666640 O    1 RES 0.0000
  1641 O1641     17.867599    11.724377     6.676395 O    1 RES 0.0000
  1642 O1642     17.867597    14.618619    19.666617 O    1 RES 0.0000
  1643 O1643     -4.696115     1.447096     6.676365 O    1 RES 0.0000
  1644 O1644     -4.696115    27.790096     6.676365 O    1 RES 0.0000
  1645 O1645     21.646885     1.447096     6.676365 O    1 RES 0.0000
  1646 O1646     21.646885    27.790096     6.676365 O    1 RES 0.0000
  1647 O1647     -1.364587     6.408581     8.355051 O    1 RES 0.0000
  1648 O1648     24.978413     6.408581     8.355051 O    1 RES 0.0000
  1649 O1649     -1.364578    19.934434    17.987959 O    1 RES 0.0000
  1650 O1650     24.978422    19.934434    17.987959 O    1 RES 0.0000
  1651 O1651     14.536106    19.580068    17.987933 O    1 RES 0.0000
  1652 O1652     14.536077     6.762903     8.355051 O    1 RES 0.0000
  1653 O1653     19.474690     8.217611    11.794307 O    1 RES 0.0000
  1654 O1654     20.039830     4.953879    11.794289 O    1 RES 0.0000
  1655 O1655     20.039830    31.296879    11.794289 O    1 RES 0.0000
  1656 O1656     19.474661    18.125402    14.548701 O    1 RES 0.0000
  1657 O1657     20.039817    -4.953871    14.548694 O    1 RES 0.0000
  1658 O1658     20.039817    21.389129    14.548694 O    1 RES 0.0000
  1659 O1659     19.666632    14.618583     8.475359 O    1 RES 0.0000
  1660 O1660     19.847900     1.447123    17.867608 O    1 RES 0.0000
  1661 O1661     19.847900    27.790123    17.867608 O    1 RES 0.0000
  1662 O1662     19.666612    11.724381    17.867594 O    1 RES 0.0000
  1663 O1663     19.847901    -1.447123     8.475384 O    1 RES 0.0000
  1664 O1664     19.847901    24.895877     8.475384 O    1 RES 0.0000
  1665 O1665     -4.816464    19.934436    11.806916 O    1 RES 0.0000
  1666 O1666     21.526536    19.934436    11.806916 O    1 RES 0.0000
  1667 O1667     17.987923    19.580092    11.806903 O    1 RES 0.0000
  1668 O1668     17.987939     6.762931    14.536096 O    1 RES 0.0000
  1669 O1669     -4.816448     6.408592    14.536068 O    1 RES 0.0000
  1670 O1670     21.526552     6.408592    14.536068 O    1 RES 0.0000
  1671 O1671     -1.377182     4.953892    19.474700 O    1 RES 0.0000
  1672 O1672     -1.377182    31.296892    19.474700 O    1 RES 0.0000
  1673 O1673     24.965818     4.953892    19.474700 O    1 RES 0.0000
  1674 O1674     24.965818    31.296892    19.474700 O    1 RES 0.0000
  1675 O1675     -1.377207    -4.953863     6.868325 O    1 RES 0.0000
  1676 O1676     -1.377207    21.389137     6.868325 O    1 RES 0.0000
  1677 O1677     24.965793    -4.953863     6.868325 O    1 RES 0.0000
  1678 O1678     24.965793    21.389137     6.868325 O    1 RES 0.0000
  1679 O1679     14.548692     8.217618    19.474687 O    1 RES 0.0000
  1680 O1680     14.548702    18.125387     6.868320 O    1 RES 0.0000
  1681 O1681      4.946908     1.359993     6.866263 O    1 RES 0.0000
  1682 O1682      4.946908    27.702993     6.866263 O    1 RES 0.0000
  1683 O1683     31.289908     1.359993     6.866263 O    1 RES 0.0000
  1684 O1684     31.289908    27.702993     6.866263 O    1 RES 0.0000
  1685 O1685      8.224577    14.531507    19.476703 O    1 RES 0.0000
  1686 O1686      8.224563    11.811527     6.866262 O    1 RES 0.0000
  1687 O1687      4.946890    -1.360012    19.476718 O    1 RES 0.0000
  1688 O1688      4.946890    24.982988    19.476718 O    1 RES 0.0000
  1689 O1689     31.289890    -1.360012    19.476718 O    1 RES 0.0000
  1690 O1690     31.289890    24.982988    19.476718 O    1 RES 0.0000
  1691 O1691      1.488916    19.845084    17.859979 O    1 RES 0.0000
  1692 O1692     27.831916    19.845084    17.859979 O    1 RES 0.0000
  1693 O1693      1.488906     6.497931     8.483024 O    1 RES 0.0000
  1694 O1694     27.831906     6.497931     8.483024 O    1 RES 0.0000
  1695 O1695     11.682606     6.673539     8.483030 O    1 RES 0.0000
  1696 O1696     11.682569    19.669426    17.859956 O    1 RES 0.0000
  1697 O1697      6.757322    17.993425    14.519627 O    1 RES 0.0000
  1698 O1698      6.414187    -4.821936    14.519603 O    1 RES 0.0000
  1699 O1699      6.414187    21.521064    14.519603 O    1 RES 0.0000
  1700 O1700      6.757323     8.349583    11.823372 O    1 RES 0.0000
  1701 O1701      6.414193     4.821948    11.823397 O    1 RES 0.0000
  1702 O1702      6.414193    31.164948    11.823397 O    1 RES 0.0000
  1703 O1703      6.866280    11.811498    18.118403 O    1 RES 0.0000
  1704 O1704      6.305227    -1.360000     8.224591 O    1 RES 0.0000
  1705 O1705      6.305227    24.983000     8.224591 O    1 RES 0.0000
  1706 O1706      6.866301    14.531511     8.224587 O    1 RES 0.0000
  1707 O1707      6.305233     1.359991    18.118413 O    1 RES 0.0000
  1708 O1708      6.305233    27.702991    18.118413 O    1 RES 0.0000
  1709 O1709      4.688456     6.497924    14.660423 O    1 RES 0.0000
  1710 O1710     31.031456     6.497924    14.660423 O    1 RES 0.0000
  1711 O1711      8.483027     6.673553    14.660400 O    1 RES 0.0000
  1712 O1712      8.483045    19.669463    11.682593 O    1 RES 0.0000
  1713 O1713      4.688469    19.845089    11.682576 O    1 RES 0.0000
  1714 O1714     31.031469    19.845089    11.682576 O    1 RES 0.0000
  1715 O1715      1.348126    -4.821904     6.757317 O    1 RES 0.0000
  1716 O1716      1.348126    21.521096     6.757317 O    1 RES 0.0000
  1717 O1717     27.691126    -4.821904     6.757317 O    1 RES 0.0000
  1718 O1718     27.691126    21.521096     6.757317 O    1 RES 0.0000
  1719 O1719      1.348090     4.821950    19.585710 O    1 RES 0.0000
  1720 O1720      1.348090    31.164950    19.585710 O    1 RES 0.0000
  1721 O1721     27.691090     4.821950    19.585710 O    1 RES 0.0000
  1722 O1722     27.691090    31.164950    19.585710 O    1 RES 0.0000
  1723 O1723     11.823389    17.993439     6.757306 O    1 RES 0.0000
  1724 O1724     11.823391     8.349574    19.585704 O    1 RES 0.0000
  1725 O1725      8.475388    11.724383    19.666604 O    1 RES 0.0000
  1726 O1726      4.696109    -1.447103     6.676375 O    1 RES 0.0000
  1727 O1727      4.696109    24.895897     6.676375 O    1 RES 0.0000
  1728 O1728     31.039109    -1.447103     6.676375 O    1 RES 0.0000
  1729 O1729     31.039109    24.895897     6.676375 O    1 RES 0.0000
  1730 O1730      4.696079     1.447135    19.666607 O    1 RES 0.0000
  1731 O1731      4.696079    27.790135    19.666607 O    1 RES 0.0000
  1732 O1732     31.039079     1.447135    19.666607 O    1 RES 0.0000
  1733 O1733     31.039079    27.790135    19.666607 O    1 RES 0.0000
  1734 O1734      8.475362    14.618582     6.676365 O    1 RES 0.0000
  1735 O1735     11.806908    19.580080     8.355061 O    1 RES 0.0000
  1736 O1736     11.806900     6.762942    17.987947 O    1 RES 0.0000
  1737 O1737      1.364604     6.408551    17.987939 O    1 RES 0.0000
  1738 O1738     27.707604     6.408551    17.987939 O    1 RES 0.0000
  1739 O1739      1.364560    19.934421     8.355023 O    1 RES 0.0000
  1740 O1740     27.707560    19.934421     8.355023 O    1 RES 0.0000
  1741 O1741      6.303191    -4.953880    11.794310 O    1 RES 0.0000
  1742 O1742      6.303191    21.389120    11.794310 O    1 RES 0.0000
  1743 O1743      6.868345    18.125385    11.794284 O    1 RES 0.0000
  1744 O1744      6.303180     4.953890    14.548691 O    1 RES 0.0000
  1745 O1745      6.303180    31.296890    14.548691 O    1 RES 0.0000
  1746 O1746      6.868333     8.217627    14.548709 O    1 RES 0.0000
  1747 O1747      6.495111     1.447114     8.475387 O    1 RES 0.0000
  1748 O1748      6.495111    27.790114     8.475387 O    1 RES 0.0000
  1749 O1749      6.676377    14.618620    17.867587 O    1 RES 0.0000
  1750 O1750      6.495129    -1.447097    17.867614 O    1 RES 0.0000
  1751 O1751      6.495129    24.895903    17.867614 O    1 RES 0.0000
  1752 O1752      6.676416    11.724355     8.475409 O    1 RES 0.0000
  1753 O1753      8.355051     6.762914    11.806914 O    1 RES 0.0000
  1754 O1754      4.816428     6.408568    11.806897 O    1 RES 0.0000
  1755 O1755     31.159428     6.408568    11.806897 O    1 RES 0.0000
  1756 O1756      4.816436    19.934432    14.536096 O    1 RES 0.0000
  1757 O1757     31.159436    19.934432    14.536096 O    1 RES 0.0000
  1758 O1758      8.355057    19.580084    14.536083 O    1 RES 0.0000
  1759 O1759     11.794307    18.125387    19.474690 O    1 RES 0.0000
  1760 O1760     11.794283     8.217623     6.868338 O    1 RES 0.0000
  1761 O1761      1.377193    -4.953876    19.474689 O    1 RES 0.0000
  1762 O1762      1.377193    21.389124    19.474689 O    1 RES 0.0000
  1763 O1763     27.720193    -4.953876    19.474689 O    1 RES 0.0000
  1764 O1764     27.720193    21.389124    19.474689 O    1 RES 0.0000
  1765 O1765      1.377195     4.953882     6.868322 O    1 RES 0.0000
  1766 O1766      1.377195    31.296882     6.868322 O    1 RES 0.0000
  1767 O1767     27.720195     4.953882     6.868322 O    1 RES 0.0000
  1768 O1768     27.720195    31.296882     6.868322 O    1 RES 0.0000
  1769 O1769      4.946904    14.531501    20.037778 O    1 RES 0.0000
  1770 O1770     31.289904    14.531501    20.037778 O    1 RES 0.0000
  1771 O1771      8.224590     1.360001     6.305225 O    1 RES 0.0000
  1772 O1772      8.224590    27.703001     6.305225 O    1 RES 0.0000
  1773 O1773      8.224585    -1.359994    20.037768 O    1 RES 0.0000
  1774 O1774      8.224585    24.983006    20.037768 O    1 RES 0.0000
  1775 O1775      4.946911    11.811492     6.305195 O    1 RES 0.0000
  1776 O1776     31.289911    11.811492     6.305195 O    1 RES 0.0000
  1777 O1777      1.488905     6.673554     4.688466 O    1 RES 0.0000
  1778 O1778      1.488905     6.673554    31.031466 O    1 RES 0.0000
  1779 O1779     27.831905     6.673554     4.688466 O    1 RES 0.0000
  1780 O1780     27.831905     6.673554    31.031466 O    1 RES 0.0000
  1781 O1781      1.488909    19.669454    -4.688454 O    1 RES 0.0000
  1782 O1782      1.488909    19.669454    21.654546 O    1 RES 0.0000
  1783 O1783     27.831909    19.669454    -4.688454 O    1 RES 0.0000
  1784 O1784     27.831909    19.669454    21.654546 O    1 RES 0.0000
  1785 O1785     11.682607    19.845054    -4.688474 O    1 RES 0.0000
  1786 O1786     11.682607    19.845054    21.654526 O    1 RES 0.0000
  1787 O1787     11.682572     6.497917     4.688467 O    1 RES 0.0000
  1788 O1788     11.682572     6.497917    31.031467 O    1 RES 0.0000
  1789 O1789      6.757338     4.821921     1.348134 O    1 RES 0.0000
  1790 O1790      6.757338     4.821921    27.691134 O    1 RES 0.0000
  1791 O1791      6.757338    31.164921     1.348134 O    1 RES 0.0000
  1792 O1792      6.757338    31.164921    27.691134 O    1 RES 0.0000
  1793 O1793      6.414203     8.349563     1.348103 O    1 RES 0.0000
  1794 O1794      6.414203     8.349563    27.691103 O    1 RES 0.0000
  1795 O1795      6.757308    -4.821907    -1.348118 O    1 RES 0.0000
  1796 O1796      6.757308    -4.821907    24.994882 O    1 RES 0.0000
  1797 O1797      6.757308    21.521093    -1.348118 O    1 RES 0.0000
  1798 O1798      6.757308    21.521093    24.994882 O    1 RES 0.0000
  1799 O1799      6.414183    17.993458    -1.348104 O    1 RES 0.0000
  1800 O1800      6.414183    17.993458    24.994896 O    1 RES 0.0000
  1801 O1801      6.866263    -1.359992     4.946907 O    1 RES 0.0000
  1802 O1802      6.866263    -1.359992    31.289907 O    1 RES 0.0000
  1803 O1803      6.866263    24.983008     4.946907 O    1 RES 0.0000
  1804 O1804      6.866263    24.983008    31.289907 O    1 RES 0.0000
  1805 O1805      6.305204    11.811496    -4.946920 O    1 RES 0.0000
  1806 O1806      6.305204    11.811496    21.396080 O    1 RES 0.0000
  1807 O1807      6.866279     1.360010    -4.946892 O    1 RES 0.0000
  1808 O1808      6.866279     1.360010    21.396108 O    1 RES 0.0000
  1809 O1809      6.866279    27.703010    -4.946892 O    1 RES 0.0000
  1810 O1810      6.866279    27.703010    21.396108 O    1 RES 0.0000
  1811 O1811      6.305242    14.531469     4.946936 O    1 RES 0.0000
  1812 O1812      6.305242    14.531469    31.289936 O    1 RES 0.0000
  1813 O1813      4.688442    19.669443     1.488930 O    1 RES 0.0000
  1814 O1814      4.688442    19.669443    27.831930 O    1 RES 0.0000
  1815 O1815     31.031442    19.669443     1.488930 O    1 RES 0.0000
  1816 O1816     31.031442    19.669443    27.831930 O    1 RES 0.0000
  1817 O1817      8.483010    19.845074     1.488903 O    1 RES 0.0000
  1818 O1818      8.483010    19.845074    27.831903 O    1 RES 0.0000
  1819 O1819      8.483030     6.497956    -1.488895 O    1 RES 0.0000
  1820 O1820      8.483030     6.497956    24.854105 O    1 RES 0.0000
  1821 O1821      4.688456     6.673591    -1.488942 O    1 RES 0.0000
  1822 O1822      4.688456     6.673591    24.854058 O    1 RES 0.0000
  1823 O1823     31.031456     6.673591    -1.488942 O    1 RES 0.0000
  1824 O1824     31.031456     6.673591    24.854058 O    1 RES 0.0000
  1825 O1825      1.348130     8.349576    19.928839 O    1 RES 0.0000
  1826 O1826     27.691130     8.349576    19.928839 O    1 RES 0.0000
  1827 O1827      1.348088    17.993476     6.414189 O    1 RES 0.0000
  1828 O1828     27.691088    17.993476     6.414189 O    1 RES 0.0000
  1829 O1829     11.823385     4.821940    19.928831 O    1 RES 0.0000
  1830 O1830     11.823385    31.164940    19.928831 O    1 RES 0.0000
  1831 O1831     11.823388    -4.821933     6.414179 O    1 RES 0.0000
  1832 O1832     11.823388    21.521067     6.414179 O    1 RES 0.0000
  1833 O1833      8.475386    -1.447114     6.495107 O    1 RES 0.0000
  1834 O1834      8.475386    24.895886     6.495107 O    1 RES 0.0000
  1835 O1835      4.696090    11.724382    19.847880 O    1 RES 0.0000
  1836 O1836     31.039090    11.724382    19.847880 O    1 RES 0.0000
  1837 O1837      4.696090    14.618642     6.495081 O    1 RES 0.0000
  1838 O1838     31.039090    14.618642     6.495081 O    1 RES 0.0000
  1839 O1839      8.475383     1.447099    19.847871 O    1 RES 0.0000
  1840 O1840      8.475383    27.790099    19.847871 O    1 RES 0.0000
  1841 O1841     11.806915     6.408589    -4.816434 O    1 RES 0.0000
  1842 O1842     11.806915     6.408589    21.526566 O    1 RES 0.0000
  1843 O1843     11.806918    19.934416     4.816447 O    1 RES 0.0000
  1844 O1844     11.806918    19.934416    31.159447 O    1 RES 0.0000
  1845 O1845      1.364610    19.580083     4.816410 O    1 RES 0.0000
  1846 O1846      1.364610    19.580083    31.159410 O    1 RES 0.0000
  1847 O1847     27.707610    19.580083     4.816410 O    1 RES 0.0000
  1848 O1848     27.707610    19.580083    31.159410 O    1 RES 0.0000
  1849 O1849      1.364568     6.762901    -4.816452 O    1 RES 0.0000
  1850 O1850      1.364568     6.762901    21.526548 O    1 RES 0.0000
  1851 O1851     27.707568     6.762901    -4.816452 O    1 RES 0.0000
  1852 O1852     27.707568     6.762901    21.526548 O    1 RES 0.0000
  1853 O1853      6.303200     8.217620    -1.377188 O    1 RES 0.0000
  1854 O1854      6.303200     8.217620    24.965812 O    1 RES 0.0000
  1855 O1855      6.868349     4.953876    -1.377217 O    1 RES 0.0000
  1856 O1856      6.868349     4.953876    24.965783 O    1 RES 0.0000
  1857 O1857      6.868349    31.296876    -1.377217 O    1 RES 0.0000
  1858 O1858      6.868349    31.296876    24.965783 O    1 RES 0.0000
  1859 O1859      6.303174    18.125392     1.377207 O    1 RES 0.0000
  1860 O1860      6.303174    18.125392    27.720207 O    1 RES 0.0000
  1861 O1861      6.868322    -4.953863     1.377206 O    1 RES 0.0000
  1862 O1862      6.868322    -4.953863    27.720206 O    1 RES 0.0000
  1863 O1863      6.868322    21.389137     1.377206 O    1 RES 0.0000
  1864 O1864      6.868322    21.389137    27.720206 O    1 RES 0.0000
  1865 O1865      6.495104    14.618614    -4.696114 O    1 RES 0.0000
  1866 O1866      6.495104    14.618614    21.646886 O    1 RES 0.0000
  1867 O1867      6.676372     1.447101     4.696112 O    1 RES 0.0000
  1868 O1868      6.676372     1.447101    31.039112 O    1 RES 0.0000
  1869 O1869      6.676372    27.790101     4.696112 O    1 RES 0.0000
  1870 O1870      6.676372    27.790101    31.039112 O    1 RES 0.0000
  1871 O1871      6.495136    11.724421     4.696136 O    1 RES 0.0000
  1872 O1872      6.495136    11.724421    31.039136 O    1 RES 0.0000
  1873 O1873      6.676393    -1.447135    -4.696081 O    1 RES 0.0000
  1874 O1874      6.676393    -1.447135    21.646919 O    1 RES 0.0000
  1875 O1875      6.676393    24.895865    -4.696081 O    1 RES 0.0000
  1876 O1876      6.676393    24.895865    21.646919 O    1 RES 0.0000
  1877 O1877      8.355036    19.934434    -1.364580 O    1 RES 0.0000
  1878 O1878      8.355036    19.934434    24.978420 O    1 RES 0.0000
  1879 O1879      4.816416    19.580083    -1.364604 O    1 RES 0.0000
  1880 O1880      4.816416    19.580083    24.978396 O    1 RES 0.0000
  1881 O1881     31.159416    19.580083    -1.364604 O    1 RES 0.0000
  1882 O1882     31.159416    19.580083    24.978396 O    1 RES 0.0000
  1883 O1883      4.816428     6.762936     1.364613 O    1 RES 0.0000
  1884 O1884      4.816428     6.762936    27.707613 O    1 RES 0.0000
  1885 O1885     31.159428     6.762936     1.364613 O    1 RES 0.0000
  1886 O1886     31.159428     6.762936    27.707613 O    1 RES 0.0000
  1887 O1887      8.355055     6.408593     1.364574 O    1 RES 0.0000
  1888 O1888      8.355055     6.408593    27.707574 O    1 RES 0.0000
  1889 O1889     11.794311     4.953886     6.303192 O    1 RES 0.0000
  1890 O1890     11.794311    31.296886     6.303192 O    1 RES 0.0000
  1891 O1891     11.794293    -4.953877    20.039841 O    1 RES 0.0000
  1892 O1892     11.794293    21.389123    20.039841 O    1 RES 0.0000
  1893 O1893      1.377202     8.217613     6.303171 O    1 RES 0.0000
  1894 O1894     27.720202     8.217613     6.303171 O    1 RES 0.0000
  1895 O1895      1.377208    18.125394    20.039840 O    1 RES 0.0000
  1896 O1896     27.720208    18.125394    20.039840 O    1 RES 0.0000
@<TRIPOS>BOND
     1      1   1465 1
     2      1   1531 1
     3      1   1615 1
     4      1   1660 1
     5      2   1466 1
     6      2   1532 1
     7      2   1616 1
     8      2   1661 1
     9      3   1467 1
    10      3   1529 1
    11      4   1468 1
    12      4   1530 1
    13      4   1617 1
    14      4   1659 1
    15      5   1598 1
    16      5   1643 1
    17      7   1599 1
    18      7   1644 1
    19      9   1505 1
    20      9   1567 1
    21      9   1600 1
    22      9   1645 1
    23     10   1506 1
    24     10   1568 1
    25     11   1507 1
    26     11   1569 1
    27     11   1601 1
    28     11   1646 1
    29     12   1508 1
    30     12   1570 1
    31     13   1471 1
    32     13   1533 1
    33     13   1618 1
    34     13   1663 1
    35     14   1472 1
    36     14   1534 1
    37     14   1619 1
    38     14   1664 1
    39     15   1473 1
    40     15   1680 1
    41     15   1723 1
    42     15   1843 1
    43     16   1474 1
    44     16   1844 1
    45     17   1527 1
    46     17   1647 1
    47     17   1693 1
    48     17   1893 1
    49     18   1528 1
    50     18   1648 1
    51     18   1694 1
    52     18   1894 1
    53     19   1477 1
    54     19   1849 1
    55     20   1478 1
    56     20   1671 1
    57     20   1719 1
    58     20   1850 1
    59     22   1672 1
    60     22   1720 1
    61     23   1479 1
    62     23   1851 1
    63     24   1480 1
    64     24   1673 1
    65     24   1721 1
    66     24   1852 1
    67     26   1674 1
    68     26   1722 1
    69     27   1587 1
    70     27   1607 1
    71     27   1737 1
    72     27   1825 1
    73     28   1588 1
    74     28   1608 1
    75     28   1738 1
    76     28   1826 1
    77     29   1485 1
    78     29   1519 1
    79     29   1553 1
    80     29   1579 1
    81     30   1486 1
    82     30   1520 1
    83     30   1554 1
    84     30   1580 1
    85     31   1624 1
    86     31   1669 1
    87     32   1611 1
    88     32   1625 1
    89     32   1653 1
    90     32   1670 1
    91     33   1491 1
    92     33   1509 1
    93     33   1559 1
    94     33   1577 1
    95     34   1492 1
    96     34   1510 1
    97     34   1560 1
    98     34   1578 1
    99     35   1511 1
   100     35   1573 1
   101     36   1512 1
   102     36   1574 1
   103     39   1493 1
   104     39   1513 1
   105     39   1555 1
   106     39   1575 1
   107     40   1494 1
   108     40   1514 1
   109     40   1556 1
   110     40   1576 1
   111     41   1495 1
   112     41   1557 1
   113     42   1496 1
   114     42   1558 1
   115     43   1497 1
   116     43   1565 1
   117     43   1593 1
   118     43   1641 1
   119     44   1498 1
   120     44   1566 1
   121     46   1594 1
   122     46   1637 1
   123     48   1595 1
   124     48   1638 1
   125     49   1499 1
   126     49   1561 1
   127     50   1500 1
   128     50   1562 1
   129     50   1596 1
   130     50   1639 1
   131     51   1501 1
   132     51   1563 1
   133     52   1502 1
   134     52   1564 1
   135     52   1597 1
   136     52   1640 1
   137     53   1469 1
   138     53   1535 1
   139     54   1470 1
   140     54   1536 1
   141     54   1620 1
   142     54   1662 1
   143     55   1503 1
   144     55   1571 1
   145     56   1504 1
   146     56   1572 1
   147     56   1602 1
   148     56   1642 1
   149     57   1591 1
   150     57   1603 1
   151     57   1736 1
   152     57   1829 1
   153     58   1592 1
   154     58   1830 1
   155     60   1633 1
   156     60   1761 1
   157     61   1537 1
   158     61   1781 1
   159     62   1538 1
   160     62   1634 1
   161     62   1762 1
   162     62   1782 1
   163     64   1635 1
   164     64   1763 1
   165     65   1539 1
   166     65   1783 1
   167     66   1540 1
   168     66   1636 1
   169     66   1764 1
   170     66   1784 1
   171     67   1585 1
   172     67   1605 1
   173     67   1739 1
   174     67   1827 1
   175     68   1586 1
   176     68   1606 1
   177     68   1740 1
   178     68   1828 1
   179     69   1675 1
   180     69   1715 1
   181     71   1481 1
   182     71   1676 1
   183     71   1716 1
   184     71   1845 1
   185     72   1482 1
   186     72   1846 1
   187     73   1677 1
   188     73   1717 1
   189     75   1483 1
   190     75   1678 1
   191     75   1718 1
   192     75   1847 1
   193     76   1484 1
   194     76   1848 1
   195     77   1609 1
   196     77   1626 1
   197     77   1654 1
   198     77   1668 1
   199     78   1610 1
   200     78   1655 1
   201     81   1515 1
   202     81   1581 1
   203     82   1516 1
   204     82   1582 1
   205     83   1487 1
   206     83   1549 1
   207     84   1488 1
   208     84   1550 1
   209     85   1489 1
   210     85   1517 1
   211     85   1551 1
   212     85   1583 1
   213     86   1490 1
   214     86   1518 1
   215     86   1552 1
   216     86   1584 1
   217     87   1612 1
   218     87   1657 1
   219     88   1613 1
   220     88   1621 1
   221     88   1658 1
   222     88   1667 1
   223     89   1622 1
   224     89   1665 1
   225     90   1614 1
   226     90   1623 1
   227     90   1656 1
   228     90   1666 1
   229     91   1681 1
   230     91   1726 1
   231     91   1801 1
   232     91   1867 1
   233     92   1802 1
   234     92   1868 1
   235     93   1682 1
   236     93   1727 1
   237     93   1803 1
   238     93   1869 1
   239     94   1804 1
   240     94   1870 1
   241     95   1683 1
   242     95   1728 1
   243     97   1684 1
   244     97   1729 1
   245     99   1805 1
   246     99   1865 1
   247    100   1685 1
   248    100   1725 1
   249    100   1806 1
   250    100   1866 1
   251    101   1707 1
   252    101   1750 1
   253    101   1773 1
   254    101   1839 1
   255    102   1708 1
   256    102   1751 1
   257    102   1774 1
   258    102   1840 1
   259    103   1807 1
   260    103   1873 1
   261    104   1687 1
   262    104   1730 1
   263    104   1808 1
   264    104   1874 1
   265    105   1809 1
   266    105   1875 1
   267    106   1688 1
   268    106   1731 1
   269    106   1810 1
   270    106   1876 1
   271    108   1689 1
   272    108   1732 1
   273    110   1690 1
   274    110   1733 1
   275    111   1525 1
   276    111   1649 1
   277    111   1691 1
   278    111   1895 1
   279    112   1526 1
   280    112   1650 1
   281    112   1692 1
   282    112   1896 1
   283    113   1475 1
   284    113   1841 1
   285    114   1476 1
   286    114   1679 1
   287    114   1724 1
   288    114   1842 1
   289    115   1523 1
   290    115   1652 1
   291    115   1695 1
   292    115   1889 1
   293    116   1524 1
   294    116   1890 1
   295    117   1545 1
   296    117   1627 1
   297    117   1760 1
   298    117   1787 1
   299    118   1546 1
   300    118   1788 1
   301    119   1697 1
   302    119   1713 1
   303    119   1743 1
   304    119   1756 1
   305    120   1714 1
   306    120   1757 1
   307    121   1793 1
   308    121   1819 1
   309    121   1853 1
   310    121   1887 1
   311    122   1794 1
   312    122   1820 1
   313    122   1854 1
   314    122   1888 1
   315    123   1700 1
   316    123   1709 1
   317    123   1746 1
   318    123   1754 1
   319    124   1710 1
   320    124   1755 1
   321    125   1701 1
   322    125   1711 1
   323    125   1744 1
   324    125   1753 1
   325    126   1702 1
   326    126   1745 1
   327    127   1703 1
   328    127   1749 1
   329    127   1769 1
   330    127   1835 1
   331    128   1770 1
   332    128   1836 1
   333    129   1704 1
   334    129   1747 1
   335    129   1771 1
   336    129   1833 1
   337    130   1705 1
   338    130   1748 1
   339    130   1772 1
   340    130   1834 1
   341    131   1686 1
   342    131   1734 1
   343    131   1811 1
   344    131   1871 1
   345    132   1812 1
   346    132   1872 1
   347    133   1706 1
   348    133   1752 1
   349    133   1775 1
   350    133   1837 1
   351    134   1776 1
   352    134   1838 1
   353    135   1541 1
   354    135   1629 1
   355    135   1765 1
   356    135   1777 1
   357    136   1542 1
   358    136   1778 1
   359    137   1630 1
   360    137   1766 1
   361    139   1543 1
   362    139   1631 1
   363    139   1767 1
   364    139   1779 1
   365    140   1544 1
   366    140   1780 1
   367    141   1632 1
   368    141   1768 1
   369    143   1589 1
   370    143   1831 1
   371    144   1590 1
   372    144   1604 1
   373    144   1735 1
   374    144   1832 1
   375    145   1547 1
   376    145   1785 1
   377    146   1548 1
   378    146   1628 1
   379    146   1759 1
   380    146   1786 1
   381    147   1521 1
   382    147   1891 1
   383    148   1522 1
   384    148   1651 1
   385    148   1696 1
   386    148   1892 1
   387    149   1789 1
   388    149   1821 1
   389    149   1855 1
   390    149   1883 1
   391    150   1790 1
   392    150   1822 1
   393    150   1856 1
   394    150   1884 1
   395    151   1791 1
   396    151   1857 1
   397    152   1792 1
   398    152   1858 1
   399    153   1823 1
   400    153   1885 1
   401    154   1824 1
   402    154   1886 1
   403    157   1698 1
   404    157   1741 1
   405    158   1699 1
   406    158   1712 1
   407    158   1742 1
   408    158   1758 1
   409    159   1795 1
   410    159   1861 1
   411    160   1796 1
   412    160   1862 1
   413    161   1797 1
   414    161   1813 1
   415    161   1863 1
   416    161   1879 1
   417    162   1798 1
   418    162   1814 1
   419    162   1864 1
   420    162   1880 1
   421    165   1815 1
   422    165   1881 1
   423    166   1816 1
   424    166   1882 1
   425    167   1799 1
   426    167   1817 1
   427    167   1859 1
   428    167   1877 1
   429    168   1800 1
   430    168   1818 1
   431    168   1860 1
   432    168   1878 1
   433    169    667 1
   434    170    668 1
   435    171    669 1
   436    172    670 1
   437    173    673 1
   438    174    674 1
   439    175    675 1
   440    176    676 1
   441    177    677 1
   442    178    678 1
   443    179    679 1
   444    180    680 1
   445    181    683 1
   446    182    684 1
   447    183    685 1
   448    184    686 1
   449    185    687 1
   450    186    688 1
   451    187    691 1
   452    188    692 1
   453    189    693 1
   454    190    694 1
   455    191    695 1
   456    192    696 1
   457    193    713 1
   458    194    714 1
   459    195    717 1
   460    196    718 1
   461    197    719 1
   462    198    720 1
   463    199    721 1
   464    200    722 1
   465    201    723 1
   466    202    724 1
   467    203    727 1
   468    204    728 1
   469    205    730 1
   470    206    732 1
   471    207    733 1
   472    208    735 1
   473    209    738 1
   474    210    740 1
   475    211    741 1
   476    212    743 1
   477    213    875 1
   478    214    876 1
   479    215    878 1
   480    216    880 1
   481    217    881 1
   482    218    883 1
   483    219    887 1
   484    220    888 1
   485    221    889 1
   486    222    892 1
   487    223    893 1
   488    224    894 1
   489    225    905 1
   490    226    907 1
   491    227    909 1
   492    228    910 1
   493    229    912 1
   494    230    914 1
   495    231    915 1
   496    232    916 1
   497    233    917 1
   498    234    918 1
   499    235    919 1
   500    236    920 1
   501    237    921 1
   502    238    922 1
   503    239    923 1
   504    240    924 1
   505    241   1056 1
   506    242   1058 1
   507    243   1059 1
   508    244   1061 1
   509    245   1063 1
   510    246   1064 1
   511    247   1065 1
   512    248   1066 1
   513    249   1067 1
   514    250   1070 1
   515    251   1071 1
   516    252   1072 1
   517    253   1085 1
   518    254   1087 1
   519    255   1089 1
   520    256   1090 1
   521    257   1092 1
   522    258   1094 1
   523    259   1095 1
   524    260   1096 1
   525    261   1097 1
   526    262   1098 1
   527    263   1099 1
   528    264   1100 1
   529    265   1101 1
   530    266   1102 1
   531    267   1103 1
   532    268   1104 1
   533    269   1313 1
   534    270   1314 1
   535    271   1315 1
   536    272   1316 1
   537    273   1317 1
   538    274   1318 1
   539    275   1319 1
   540    276   1320 1
   541    277   1323 1
   542    278   1324 1
   543    279   1325 1
   544    280   1326 1
   545    281   1329 1
   546    282   1330 1
   547    283   1331 1
   548    284   1332 1
   549    285   1333 1
   550    286   1334 1
   551    287   1337 1
   552    288   1338 1
   553    289   1339 1
   554    290   1340 1
   555    291   1341 1
   556    292   1342 1
   557    293   1361 1
   558    294   1362 1
   559    295   1363 1
   560    296   1364 1
   561    297   1367 1
   562    298   1368 1
   563    299   1369 1
   564    300   1370 1
   565    301   1373 1
   566    302   1374 1
   567    303   1375 1
   568    304   1376 1
   569    305   1378 1
   570    306   1380 1
   571    307   1381 1
   572    308   1383 1
   573    309   1386 1
   574    310   1388 1
   575    311   1389 1
   576    312   1391 1
   577    313   1393 1
   578    314   1394 1
   579    315   1393 1
   580    316   1394 1
   581    317   1395 1
   582    318   1396 1
   583    319   1395 1
   584    320   1396 1
   585    321   1397 1
   586    322   1398 1
   587    323   1397 1
   588    324   1398 1
   589    325   1399 1
   590    326   1400 1
   591    327   1399 1
   592    328   1400 1
   593    329   1401 1
   594    330   1402 1
   595    331   1401 1
   596    332   1402 1
   597    333   1403 1
   598    334   1404 1
   599    335   1405 1
   600    336   1406 1
   601    337   1403 1
   602    338   1404 1
   603    339   1405 1
   604    340   1406 1
   605    341   1407 1
   606    342   1408 1
   607    343   1407 1
   608    344   1408 1
   609    345   1409 1
   610    346   1410 1
   611    347   1411 1
   612    348   1412 1
   613    349   1409 1
   614    350   1410 1
   615    351   1411 1
   616    352   1412 1
   617    353   1413 1
   618    354   1413 1
   619    355   1414 1
   620    356   1415 1
   621    357   1416 1
   622    358   1417 1
   623    359   1414 1
   624    360   1415 1
   625    361   1416 1
   626    362   1417 1
   627    363   1418 1
   628    364   1419 1
   629    365   1420 1
   630    366   1421 1
   631    367   1418 1
   632    368   1419 1
   633    369   1420 1
   634    370   1421 1
   635    371   1422 1
   636    372   1422 1
   637    373   1423 1
   638    374   1424 1
   639    375   1423 1
   640    376   1424 1
   641    377   1425 1
   642    378   1425 1
   643    379   1426 1
   644    380   1427 1
   645    381   1426 1
   646    382   1427 1
   647    383   1428 1
   648    384   1428 1
   649    385   1429 1
   650    386   1430 1
   651    387   1431 1
   652    388   1432 1
   653    389   1429 1
   654    390   1430 1
   655    391   1431 1
   656    392   1432 1
   657    393   1433 1
   658    394   1433 1
   659    395   1434 1
   660    396   1434 1
   661    397   1435 1
   662    398   1436 1
   663    399   1437 1
   664    400   1438 1
   665    401   1435 1
   666    402   1436 1
   667    403   1437 1
   668    404   1438 1
   669    405   1439 1
   670    406   1439 1
   671    407   1440 1
   672    408   1441 1
   673    409   1440 1
   674    410   1441 1
   675    411   1442 1
   676    412   1442 1
   677    413   1443 1
   678    414   1444 1
   679    415   1443 1
   680    416   1444 1
   681    417   1445 1
   682    418   1446 1
   683    419   1445 1
   684    420   1446 1
   685    421   1447 1
   686    422   1448 1
   687    423   1447 1
   688    424   1448 1
   689    425   1449 1
   690    426   1450 1
   691    427   1449 1
   692    428   1450 1
   693    429   1451 1
   694    430   1452 1
   695    431   1451 1
   696    432   1452 1
   697    433   1453 1
   698    434   1454 1
   699    435   1455 1
   700    436   1456 1
   701    437   1453 1
   702    438   1454 1
   703    439   1455 1
   704    440   1456 1
   705    441   1457 1
   706    442   1458 1
   707    443   1457 1
   708    444   1458 1
   709    445   1459 1
   710    446   1460 1
   711    447   1461 1
   712    448   1462 1
   713    449   1459 1
   714    450   1460 1
   715    451   1461 1
   716    452   1462 1
   717    453   1463 1
   718    454   1464 1
   719    455   1463 1
   720    456   1464 1
   721    457    553 1
   722    457   1561 1
   723    458    554 1
   724    458   1465 1
   725    458   1562 1
   726    459    555 1
   727    459   1563 1
   728    460    556 1
   729    460   1466 1
   730    460   1564 1
   731    461    557 1
   732    461   1467 1
   733    462    558 1
   734    463    559 1
   735    463   1468 1
   736    463   1565 1
   737    464    560 1
   738    464   1566 1
   739    465    561 1
   740    466    562 1
   741    466   1469 1
   742    467    563 1
   743    467   1571 1
   744    468    564 1
   745    468   1470 1
   746    468   1572 1
   747    469    565 1
   748    469   1471 1
   749    469   1567 1
   750    470    566 1
   751    470   1568 1
   752    471    567 1
   753    471   1472 1
   754    471   1569 1
   755    472    568 1
   756    472   1570 1
   757    473    569 1
   758    473   1589 1
   759    474    570 1
   760    475    571 1
   761    475   1473 1
   762    475   1590 1
   763    476    572 1
   764    476   1474 1
   765    477    573 1
   766    477   1475 1
   767    478    574 1
   768    478   1476 1
   769    478   1591 1
   770    479    575 1
   771    480    576 1
   772    480   1592 1
   773    481    577 1
   774    481   1477 1
   775    482    578 1
   776    482   1478 1
   777    482   1587 1
   778    483    579 1
   779    483   1479 1
   780    484    580 1
   781    484   1480 1
   782    484   1588 1
   783    485    581 1
   784    485   1481 1
   785    485   1585 1
   786    486    582 1
   787    486   1482 1
   788    487    583 1
   789    487   1483 1
   790    487   1586 1
   791    488    584 1
   792    488   1484 1
   793    489    585 1
   794    489   1581 1
   795    490    586 1
   796    490   1582 1
   797    491    587 1
   798    491   1485 1
   799    491   1583 1
   800    492    588 1
   801    492   1486 1
   802    492   1584 1
   803    493    589 1
   804    493   1487 1
   805    494    590 1
   806    494   1488 1
   807    495    591 1
   808    495   1489 1
   809    495   1579 1
   810    496    592 1
   811    496   1490 1
   812    496   1580 1
   813    497    593 1
   814    497   1573 1
   815    498    594 1
   816    498   1574 1
   817    499    595 1
   818    499   1491 1
   819    499   1575 1
   820    500    596 1
   821    500   1492 1
   822    500   1576 1
   823    501    597 1
   824    501   1493 1
   825    501   1577 1
   826    502    598 1
   827    502   1494 1
   828    502   1578 1
   829    503    599 1
   830    503   1495 1
   831    504    600 1
   832    504   1496 1
   833    505    601 1
   834    505   1529 1
   835    506    602 1
   836    507    603 1
   837    507   1497 1
   838    507   1530 1
   839    508    604 1
   840    508   1498 1
   841    509    605 1
   842    509   1499 1
   843    510    606 1
   844    510   1500 1
   845    510   1531 1
   846    511    607 1
   847    511   1501 1
   848    512    608 1
   849    512   1502 1
   850    512   1532 1
   851    513    609 1
   852    514    610 1
   853    514   1535 1
   854    515    611 1
   855    515   1503 1
   856    516    612 1
   857    516   1504 1
   858    516   1536 1
   859    517    613 1
   860    517   1505 1
   861    517   1533 1
   862    518    614 1
   863    518   1506 1
   864    519    615 1
   865    519   1507 1
   866    519   1534 1
   867    520    616 1
   868    520   1508 1
   869    521    617 1
   870    521   1509 1
   871    521   1555 1
   872    522    618 1
   873    522   1510 1
   874    522   1556 1
   875    523    619 1
   876    523   1557 1
   877    524    620 1
   878    524   1558 1
   879    525    621 1
   880    525   1511 1
   881    526    622 1
   882    526   1512 1
   883    527    623 1
   884    527   1513 1
   885    527   1559 1
   886    528    624 1
   887    528   1514 1
   888    528   1560 1
   889    529    625 1
   890    529   1515 1
   891    530    626 1
   892    530   1516 1
   893    531    627 1
   894    531   1517 1
   895    531   1553 1
   896    532    628 1
   897    532   1518 1
   898    532   1554 1
   899    533    629 1
   900    533   1549 1
   901    534    630 1
   902    534   1550 1
   903    535    631 1
   904    535   1519 1
   905    535   1551 1
   906    536    632 1
   907    536   1520 1
   908    536   1552 1
   909    537    633 1
   910    538    634 1
   911    538   1521 1
   912    539    635 1
   913    539   1547 1
   914    540    636 1
   915    540   1522 1
   916    540   1548 1
   917    541    637 1
   918    541   1523 1
   919    541   1545 1
   920    542    638 1
   921    542   1546 1
   922    543    639 1
   923    543   1524 1
   924    544    640 1
   925    545    641 1
   926    545   1537 1
   927    546    642 1
   928    546   1525 1
   929    546   1538 1
   930    547    643 1
   931    547   1539 1
   932    548    644 1
   933    548   1526 1
   934    548   1540 1
   935    549    645 1
   936    549   1527 1
   937    549   1541 1
   938    550    646 1
   939    550   1542 1
   940    551    647 1
   941    551   1528 1
   942    551   1543 1
   943    552    648 1
   944    552   1544 1
   945    553    649 1
   946    553    693 1
   947    554    650 1
   948    554    694 1
   949    555    651 1
   950    555    695 1
   951    556    652 1
   952    556    696 1
   953    557    653 1
   954    557    681 1
   955    558    654 1
   956    558    682 1
   957    559    655 1
   958    559    683 1
   959    560    656 1
   960    560    684 1
   961    561    657 1
   962    561    689 1
   963    562    658 1
   964    562    690 1
   965    563    659 1
   966    563    691 1
   967    564    660 1
   968    564    692 1
   969    565    661 1
   970    565    685 1
   971    566    662 1
   972    566    686 1
   973    567    663 1
   974    567    687 1
   975    568    664 1
   976    568    688 1
   977    569    661 1
   978    569    665 1
   979    570    662 1
   980    570    666 1
   981    571    663 1
   982    571    667 1
   983    572    664 1
   984    572    668 1
   985    573    649 1
   986    573    669 1
   987    574    650 1
   988    574    670 1
   989    575    651 1
   990    575    671 1
   991    576    652 1
   992    576    672 1
   993    577    657 1
   994    577    673 1
   995    578    658 1
   996    578    674 1
   997    579    659 1
   998    579    675 1
   999    580    660 1
  1000    580    676 1
  1001    581    653 1
  1002    581    677 1
  1003    582    654 1
  1004    582    678 1
  1005    583    655 1
  1006    583    679 1
  1007    584    656 1
  1008    584    680 1
  1009    585    677 1
  1010    585    681 1
  1011    586    678 1
  1012    586    682 1
  1013    587    679 1
  1014    587    683 1
  1015    588    680 1
  1016    588    684 1
  1017    589    665 1
  1018    589    685 1
  1019    590    666 1
  1020    590    686 1
  1021    591    667 1
  1022    591    687 1
  1023    592    668 1
  1024    592    688 1
  1025    593    673 1
  1026    593    689 1
  1027    594    674 1
  1028    594    690 1
  1029    595    675 1
  1030    595    691 1
  1031    596    676 1
  1032    596    692 1
  1033    597    669 1
  1034    597    693 1
  1035    598    670 1
  1036    598    694 1
  1037    599    671 1
  1038    599    695 1
  1039    600    672 1
  1040    600    696 1
  1041    601    697 1
  1042    601    741 1
  1043    602    698 1
  1044    602    742 1
  1045    603    699 1
  1046    603    743 1
  1047    604    700 1
  1048    604    744 1
  1049    605    701 1
  1050    605    729 1
  1051    606    702 1
  1052    606    730 1
  1053    607    703 1
  1054    607    731 1
  1055    608    704 1
  1056    608    732 1
  1057    609    705 1
  1058    609    737 1
  1059    610    706 1
  1060    610    738 1
  1061    611    707 1
  1062    611    739 1
  1063    612    708 1
  1064    612    740 1
  1065    613    709 1
  1066    613    733 1
  1067    614    710 1
  1068    614    734 1
  1069    615    711 1
  1070    615    735 1
  1071    616    712 1
  1072    616    736 1
  1073    617    709 1
  1074    617    713 1
  1075    618    710 1
  1076    618    714 1
  1077    619    711 1
  1078    619    715 1
  1079    620    712 1
  1080    620    716 1
  1081    621    697 1
  1082    621    717 1
  1083    622    698 1
  1084    622    718 1
  1085    623    699 1
  1086    623    719 1
  1087    624    700 1
  1088    624    720 1
  1089    625    705 1
  1090    625    721 1
  1091    626    706 1
  1092    626    722 1
  1093    627    707 1
  1094    627    723 1
  1095    628    708 1
  1096    628    724 1
  1097    629    701 1
  1098    629    725 1
  1099    630    702 1
  1100    630    726 1
  1101    631    703 1
  1102    631    727 1
  1103    632    704 1
  1104    632    728 1
  1105    633    725 1
  1106    633    729 1
  1107    634    726 1
  1108    634    730 1
  1109    635    727 1
  1110    635    731 1
  1111    636    728 1
  1112    636    732 1
  1113    637    713 1
  1114    637    733 1
  1115    638    714 1
  1116    638    734 1
  1117    639    715 1
  1118    639    735 1
  1119    640    716 1
  1120    640    736 1
  1121    641    721 1
  1122    641    737 1
  1123    642    722 1
  1124    642    738 1
  1125    643    723 1
  1126    643    739 1
  1127    644    724 1
  1128    644    740 1
  1129    645    717 1
  1130    645    741 1
  1131    646    718 1
  1132    646    742 1
  1133    647    719 1
  1134    647    743 1
  1135    648    720 1
  1136    648    744 1
  1137    650   1393 1
  1138    652   1394 1
  1139    653   1395 1
  1140    655   1396 1
  1141    658   1397 1
  1142    660   1398 1
  1143    661   1399 1
  1144    663   1400 1
  1145    699   1401 1
  1146    700   1402 1
  1147    701   1403 1
  1148    702   1404 1
  1149    703   1405 1
  1150    704   1406 1
  1151    707   1407 1
  1152    708   1408 1
  1153    709   1409 1
  1154    710   1410 1
  1155    711   1411 1
  1156    712   1412 1
  1157    745    805 1
  1158    745   1593 1
  1159    745   1659 1
  1160    746    806 1
  1161    746   1594 1
  1162    747    807 1
  1163    747   1595 1
  1164    748    808 1
  1165    748   1596 1
  1166    748   1660 1
  1167    749    809 1
  1168    749   1597 1
  1169    749   1661 1
  1170    750    810 1
  1171    750   1598 1
  1172    751    811 1
  1173    751   1599 1
  1174    752    812 1
  1175    752   1600 1
  1176    752   1663 1
  1177    753    813 1
  1178    753   1601 1
  1179    753   1664 1
  1180    754    814 1
  1181    754   1602 1
  1182    754   1662 1
  1183    755    815 1
  1184    755   1603 1
  1185    755   1679 1
  1186    756    816 1
  1187    756   1604 1
  1188    756   1680 1
  1189    757    817 1
  1190    757   1675 1
  1191    758    818 1
  1192    758   1605 1
  1193    758   1676 1
  1194    759    819 1
  1195    759   1677 1
  1196    760    820 1
  1197    760   1606 1
  1198    760   1678 1
  1199    761    821 1
  1200    761   1607 1
  1201    761   1671 1
  1202    762    822 1
  1203    762   1672 1
  1204    763    823 1
  1205    763   1608 1
  1206    763   1673 1
  1207    764    824 1
  1208    764   1674 1
  1209    765    825 1
  1210    765   1669 1
  1211    766    826 1
  1212    767    827 1
  1213    767   1609 1
  1214    767   1670 1
  1215    768    828 1
  1216    768   1610 1
  1217    769    829 1
  1218    769   1611 1
  1219    769   1668 1
  1220    770    830 1
  1221    771    831 1
  1222    771   1665 1
  1223    772    832 1
  1224    772   1612 1
  1225    773    833 1
  1226    773   1613 1
  1227    773   1666 1
  1228    774    834 1
  1229    774   1614 1
  1230    774   1667 1
  1231    775    835 1
  1232    775   1637 1
  1233    776    836 1
  1234    776   1638 1
  1235    777    837 1
  1236    777   1615 1
  1237    777   1639 1
  1238    778    838 1
  1239    778   1616 1
  1240    778   1640 1
  1241    779    839 1
  1242    779   1617 1
  1243    779   1641 1
  1244    780    840 1
  1245    780   1643 1
  1246    781    841 1
  1247    781   1644 1
  1248    782    842 1
  1249    782   1618 1
  1250    782   1645 1
  1251    783    843 1
  1252    783   1619 1
  1253    783   1646 1
  1254    784    844 1
  1255    784   1620 1
  1256    784   1642 1
  1257    785    845 1
  1258    785   1621 1
  1259    785   1656 1
  1260    786    846 1
  1261    787    847 1
  1262    787   1622 1
  1263    788    848 1
  1264    788   1657 1
  1265    789    849 1
  1266    789   1623 1
  1267    789   1658 1
  1268    790    850 1
  1269    790   1624 1
  1270    791    851 1
  1271    792    852 1
  1272    792   1625 1
  1273    792   1654 1
  1274    793    853 1
  1275    793   1655 1
  1276    794    854 1
  1277    794   1626 1
  1278    794   1653 1
  1279    795    855 1
  1280    795   1627 1
  1281    795   1652 1
  1282    796    856 1
  1283    796   1628 1
  1284    796   1651 1
  1285    797    857 1
  1286    797   1629 1
  1287    797   1647 1
  1288    798    858 1
  1289    798   1630 1
  1290    799    859 1
  1291    799   1631 1
  1292    799   1648 1
  1293    800    860 1
  1294    800   1632 1
  1295    801    861 1
  1296    801   1633 1
  1297    802    862 1
  1298    802   1634 1
  1299    802   1649 1
  1300    803    863 1
  1301    803   1635 1
  1302    804    864 1
  1303    804   1636 1
  1304    804   1650 1
  1305    805    865 1
  1306    805    894 1
  1307    806    866 1
  1308    806    885 1
  1309    807    867 1
  1310    807    886 1
  1311    808    868 1
  1312    808    887 1
  1313    809    869 1
  1314    809    888 1
  1315    810    870 1
  1316    810    890 1
  1317    811    871 1
  1318    811    891 1
  1319    812    872 1
  1320    812    892 1
  1321    813    873 1
  1322    813    893 1
  1323    814    874 1
  1324    814    889 1
  1325    815    874 1
  1326    815    875 1
  1327    816    865 1
  1328    816    876 1
  1329    817    870 1
  1330    817    877 1
  1331    818    871 1
  1332    818    878 1
  1333    819    872 1
  1334    819    879 1
  1335    820    873 1
  1336    820    880 1
  1337    821    866 1
  1338    821    881 1
  1339    822    867 1
  1340    822    882 1
  1341    823    868 1
  1342    823    883 1
  1343    824    869 1
  1344    824    884 1
  1345    825    881 1
  1346    825    885 1
  1347    826    882 1
  1348    826    886 1
  1349    827    883 1
  1350    827    887 1
  1351    828    884 1
  1352    828    888 1
  1353    829    875 1
  1354    829    889 1
  1355    830    877 1
  1356    830    890 1
  1357    831    878 1
  1358    831    891 1
  1359    832    879 1
  1360    832    892 1
  1361    833    880 1
  1362    833    893 1
  1363    834    876 1
  1364    834    894 1
  1365    835    895 1
  1366    835    921 1
  1367    836    896 1
  1368    836    922 1
  1369    837    897 1
  1370    837    923 1
  1371    838    898 1
  1372    838    924 1
  1373    839    899 1
  1374    839    915 1
  1375    840    900 1
  1376    840    917 1
  1377    841    901 1
  1378    841    918 1
  1379    842    902 1
  1380    842    919 1
  1381    843    903 1
  1382    843    920 1
  1383    844    904 1
  1384    844    916 1
  1385    845    904 1
  1386    845    905 1
  1387    846    895 1
  1388    846    906 1
  1389    847    896 1
  1390    847    907 1
  1391    848    897 1
  1392    848    908 1
  1393    849    898 1
  1394    849    909 1
  1395    850    900 1
  1396    850    910 1
  1397    851    901 1
  1398    851    911 1
  1399    852    902 1
  1400    852    912 1
  1401    853    903 1
  1402    853    913 1
  1403    854    899 1
  1404    854    914 1
  1405    855    914 1
  1406    855    915 1
  1407    856    905 1
  1408    856    916 1
  1409    857    910 1
  1410    857    917 1
  1411    858    911 1
  1412    858    918 1
  1413    859    912 1
  1414    859    919 1
  1415    860    913 1
  1416    860    920 1
  1417    861    906 1
  1418    861    921 1
  1419    862    907 1
  1420    862    922 1
  1421    863    908 1
  1422    863    923 1
  1423    864    909 1
  1424    864    924 1
  1425    865   1413 1
  1426    866   1414 1
  1427    867   1415 1
  1428    868   1416 1
  1429    869   1417 1
  1430    870   1418 1
  1431    871   1419 1
  1432    872   1420 1
  1433    873   1421 1
  1434    874   1422 1
  1435    897   1423 1
  1436    898   1424 1
  1437    899   1425 1
  1438    902   1426 1
  1439    903   1427 1
  1440    904   1428 1
  1441    925    985 1
  1442    925   1681 1
  1443    925   1747 1
  1444    926    986 1
  1445    926   1682 1
  1446    926   1748 1
  1447    927    987 1
  1448    927   1683 1
  1449    928    988 1
  1450    928   1684 1
  1451    929    989 1
  1452    929   1685 1
  1453    929   1749 1
  1454    930    990 1
  1455    930   1686 1
  1456    930   1752 1
  1457    931    991 1
  1458    931   1687 1
  1459    931   1750 1
  1460    932    992 1
  1461    932   1688 1
  1462    932   1751 1
  1463    933    993 1
  1464    933   1689 1
  1465    934    994 1
  1466    934   1690 1
  1467    935    995 1
  1468    935   1761 1
  1469    936    996 1
  1470    936   1691 1
  1471    936   1762 1
  1472    937    997 1
  1473    937   1763 1
  1474    938    998 1
  1475    938   1692 1
  1476    938   1764 1
  1477    939    999 1
  1478    939   1693 1
  1479    939   1765 1
  1480    940   1000 1
  1481    940   1766 1
  1482    941   1001 1
  1483    941   1694 1
  1484    941   1767 1
  1485    942   1002 1
  1486    942   1768 1
  1487    943   1003 1
  1488    943   1695 1
  1489    943   1760 1
  1490    944   1004 1
  1491    944   1696 1
  1492    944   1759 1
  1493    945   1005 1
  1494    945   1697 1
  1495    945   1758 1
  1496    946   1006 1
  1497    946   1698 1
  1498    947   1007 1
  1499    947   1699 1
  1500    947   1756 1
  1501    948   1008 1
  1502    949   1009 1
  1503    949   1757 1
  1504    950   1010 1
  1505    950   1700 1
  1506    950   1753 1
  1507    951   1011 1
  1508    951   1701 1
  1509    951   1754 1
  1510    952   1012 1
  1511    952   1702 1
  1512    953   1013 1
  1513    953   1755 1
  1514    954   1014 1
  1515    955   1015 1
  1516    955   1703 1
  1517    955   1725 1
  1518    956   1016 1
  1519    956   1704 1
  1520    956   1726 1
  1521    957   1017 1
  1522    957   1705 1
  1523    957   1727 1
  1524    958   1018 1
  1525    958   1728 1
  1526    959   1019 1
  1527    959   1729 1
  1528    960   1020 1
  1529    960   1706 1
  1530    960   1734 1
  1531    961   1021 1
  1532    961   1707 1
  1533    961   1730 1
  1534    962   1022 1
  1535    962   1708 1
  1536    962   1731 1
  1537    963   1023 1
  1538    963   1732 1
  1539    964   1024 1
  1540    964   1733 1
  1541    965   1025 1
  1542    965   1709 1
  1543    965   1744 1
  1544    966   1026 1
  1545    966   1745 1
  1546    967   1027 1
  1547    967   1710 1
  1548    968   1028 1
  1549    969   1029 1
  1550    969   1711 1
  1551    969   1746 1
  1552    970   1030 1
  1553    970   1712 1
  1554    970   1743 1
  1555    971   1031 1
  1556    971   1741 1
  1557    972   1032 1
  1558    972   1713 1
  1559    972   1742 1
  1560    973   1033 1
  1561    974   1034 1
  1562    974   1714 1
  1563    975   1035 1
  1564    975   1715 1
  1565    976   1036 1
  1566    976   1716 1
  1567    976   1739 1
  1568    977   1037 1
  1569    977   1717 1
  1570    978   1038 1
  1571    978   1718 1
  1572    978   1740 1
  1573    979   1039 1
  1574    979   1719 1
  1575    979   1737 1
  1576    980   1040 1
  1577    980   1720 1
  1578    981   1041 1
  1579    981   1721 1
  1580    981   1738 1
  1581    982   1042 1
  1582    982   1722 1
  1583    983   1043 1
  1584    983   1723 1
  1585    983   1735 1
  1586    984   1044 1
  1587    984   1724 1
  1588    984   1736 1
  1589    985   1045 1
  1590    985   1071 1
  1591    986   1046 1
  1592    986   1072 1
  1593    987   1047 1
  1594    987   1073 1
  1595    988   1048 1
  1596    988   1074 1
  1597    989   1049 1
  1598    989   1065 1
  1599    990   1050 1
  1600    990   1070 1
  1601    991   1051 1
  1602    991   1066 1
  1603    992   1052 1
  1604    992   1067 1
  1605    993   1053 1
  1606    993   1068 1
  1607    994   1054 1
  1608    994   1069 1
  1609    995   1051 1
  1610    995   1055 1
  1611    996   1052 1
  1612    996   1056 1
  1613    997   1053 1
  1614    997   1057 1
  1615    998   1054 1
  1616    998   1058 1
  1617    999   1045 1
  1618    999   1059 1
  1619   1000   1046 1
  1620   1000   1060 1
  1621   1001   1047 1
  1622   1001   1061 1
  1623   1002   1048 1
  1624   1002   1062 1
  1625   1003   1050 1
  1626   1003   1063 1
  1627   1004   1049 1
  1628   1004   1064 1
  1629   1005   1064 1
  1630   1005   1065 1
  1631   1006   1055 1
  1632   1006   1066 1
  1633   1007   1056 1
  1634   1007   1067 1
  1635   1008   1057 1
  1636   1008   1068 1
  1637   1009   1058 1
  1638   1009   1069 1
  1639   1010   1063 1
  1640   1010   1070 1
  1641   1011   1059 1
  1642   1011   1071 1
  1643   1012   1060 1
  1644   1012   1072 1
  1645   1013   1061 1
  1646   1013   1073 1
  1647   1014   1062 1
  1648   1014   1074 1
  1649   1015   1075 1
  1650   1015   1104 1
  1651   1016   1076 1
  1652   1016   1095 1
  1653   1017   1077 1
  1654   1017   1096 1
  1655   1018   1078 1
  1656   1018   1097 1
  1657   1019   1079 1
  1658   1019   1098 1
  1659   1020   1080 1
  1660   1020   1103 1
  1661   1021   1081 1
  1662   1021   1099 1
  1663   1022   1082 1
  1664   1022   1100 1
  1665   1023   1083 1
  1666   1023   1101 1
  1667   1024   1084 1
  1668   1024   1102 1
  1669   1025   1081 1
  1670   1025   1085 1
  1671   1026   1082 1
  1672   1026   1086 1
  1673   1027   1083 1
  1674   1027   1087 1
  1675   1028   1084 1
  1676   1028   1088 1
  1677   1029   1075 1
  1678   1029   1089 1
  1679   1030   1080 1
  1680   1030   1090 1
  1681   1031   1076 1
  1682   1031   1091 1
  1683   1032   1077 1
  1684   1032   1092 1
  1685   1033   1078 1
  1686   1033   1093 1
  1687   1034   1079 1
  1688   1034   1094 1
  1689   1035   1091 1
  1690   1035   1095 1
  1691   1036   1092 1
  1692   1036   1096 1
  1693   1037   1093 1
  1694   1037   1097 1
  1695   1038   1094 1
  1696   1038   1098 1
  1697   1039   1085 1
  1698   1039   1099 1
  1699   1040   1086 1
  1700   1040   1100 1
  1701   1041   1087 1
  1702   1041   1101 1
  1703   1042   1088 1
  1704   1042   1102 1
  1705   1043   1090 1
  1706   1043   1103 1
  1707   1044   1089 1
  1708   1044   1104 1
  1709   1045   1429 1
  1710   1046   1430 1
  1711   1047   1431 1
  1712   1048   1432 1
  1713   1049   1433 1
  1714   1050   1434 1
  1715   1051   1435 1
  1716   1052   1436 1
  1717   1053   1437 1
  1718   1054   1438 1
  1719   1075   1439 1
  1720   1076   1440 1
  1721   1077   1441 1
  1722   1080   1442 1
  1723   1081   1443 1
  1724   1082   1444 1
  1725   1105   1201 1
  1726   1105   1865 1
  1727   1106   1202 1
  1728   1106   1769 1
  1729   1106   1866 1
  1730   1107   1203 1
  1731   1108   1204 1
  1732   1108   1770 1
  1733   1109   1205 1
  1734   1109   1771 1
  1735   1109   1867 1
  1736   1110   1206 1
  1737   1110   1868 1
  1738   1111   1207 1
  1739   1111   1772 1
  1740   1111   1869 1
  1741   1112   1208 1
  1742   1112   1870 1
  1743   1113   1209 1
  1744   1113   1873 1
  1745   1114   1210 1
  1746   1114   1773 1
  1747   1114   1874 1
  1748   1115   1211 1
  1749   1115   1875 1
  1750   1116   1212 1
  1751   1116   1774 1
  1752   1116   1876 1
  1753   1117   1213 1
  1754   1117   1775 1
  1755   1117   1871 1
  1756   1118   1214 1
  1757   1118   1872 1
  1758   1119   1215 1
  1759   1119   1776 1
  1760   1120   1216 1
  1761   1121   1217 1
  1762   1121   1777 1
  1763   1121   1893 1
  1764   1122   1218 1
  1765   1122   1778 1
  1766   1123   1219 1
  1767   1123   1779 1
  1768   1123   1894 1
  1769   1124   1220 1
  1770   1124   1780 1
  1771   1125   1221 1
  1772   1125   1781 1
  1773   1126   1222 1
  1774   1126   1782 1
  1775   1126   1895 1
  1776   1127   1223 1
  1777   1127   1783 1
  1778   1128   1224 1
  1779   1128   1784 1
  1780   1128   1896 1
  1781   1129   1225 1
  1782   1130   1226 1
  1783   1130   1891 1
  1784   1131   1227 1
  1785   1131   1785 1
  1786   1132   1228 1
  1787   1132   1786 1
  1788   1132   1892 1
  1789   1133   1229 1
  1790   1133   1787 1
  1791   1133   1889 1
  1792   1134   1230 1
  1793   1134   1788 1
  1794   1135   1231 1
  1795   1135   1890 1
  1796   1136   1232 1
  1797   1137   1233 1
  1798   1137   1789 1
  1799   1137   1887 1
  1800   1138   1234 1
  1801   1138   1790 1
  1802   1138   1888 1
  1803   1139   1235 1
  1804   1139   1791 1
  1805   1140   1236 1
  1806   1140   1792 1
  1807   1141   1237 1
  1808   1141   1793 1
  1809   1141   1883 1
  1810   1142   1238 1
  1811   1142   1794 1
  1812   1142   1884 1
  1813   1143   1239 1
  1814   1143   1885 1
  1815   1144   1240 1
  1816   1144   1886 1
  1817   1145   1241 1
  1818   1145   1795 1
  1819   1146   1242 1
  1820   1146   1796 1
  1821   1147   1243 1
  1822   1147   1797 1
  1823   1147   1877 1
  1824   1148   1244 1
  1825   1148   1798 1
  1826   1148   1878 1
  1827   1149   1245 1
  1828   1149   1799 1
  1829   1149   1879 1
  1830   1150   1246 1
  1831   1150   1800 1
  1832   1150   1880 1
  1833   1151   1247 1
  1834   1151   1881 1
  1835   1152   1248 1
  1836   1152   1882 1
  1837   1153   1249 1
  1838   1153   1801 1
  1839   1153   1833 1
  1840   1154   1250 1
  1841   1154   1802 1
  1842   1155   1251 1
  1843   1155   1803 1
  1844   1155   1834 1
  1845   1156   1252 1
  1846   1156   1804 1
  1847   1157   1253 1
  1848   1157   1805 1
  1849   1158   1254 1
  1850   1158   1806 1
  1851   1158   1835 1
  1852   1159   1255 1
  1853   1160   1256 1
  1854   1160   1836 1
  1855   1161   1257 1
  1856   1161   1807 1
  1857   1162   1258 1
  1858   1162   1808 1
  1859   1162   1839 1
  1860   1163   1259 1
  1861   1163   1809 1
  1862   1164   1260 1
  1863   1164   1810 1
  1864   1164   1840 1
  1865   1165   1261 1
  1866   1165   1811 1
  1867   1165   1837 1
  1868   1166   1262 1
  1869   1166   1812 1
  1870   1167   1263 1
  1871   1167   1838 1
  1872   1168   1264 1
  1873   1169   1265 1
  1874   1169   1813 1
  1875   1169   1859 1
  1876   1170   1266 1
  1877   1170   1814 1
  1878   1170   1860 1
  1879   1171   1267 1
  1880   1171   1815 1
  1881   1172   1268 1
  1882   1172   1816 1
  1883   1173   1269 1
  1884   1173   1861 1
  1885   1174   1270 1
  1886   1174   1862 1
  1887   1175   1271 1
  1888   1175   1817 1
  1889   1175   1863 1
  1890   1176   1272 1
  1891   1176   1818 1
  1892   1176   1864 1
  1893   1177   1273 1
  1894   1177   1819 1
  1895   1177   1855 1
  1896   1178   1274 1
  1897   1178   1820 1
  1898   1178   1856 1
  1899   1179   1275 1
  1900   1179   1857 1
  1901   1180   1276 1
  1902   1180   1858 1
  1903   1181   1277 1
  1904   1181   1821 1
  1905   1181   1853 1
  1906   1182   1278 1
  1907   1182   1822 1
  1908   1182   1854 1
  1909   1183   1279 1
  1910   1183   1823 1
  1911   1184   1280 1
  1912   1184   1824 1
  1913   1185   1281 1
  1914   1185   1849 1
  1915   1186   1282 1
  1916   1186   1825 1
  1917   1186   1850 1
  1918   1187   1283 1
  1919   1187   1851 1
  1920   1188   1284 1
  1921   1188   1826 1
  1922   1188   1852 1
  1923   1189   1285 1
  1924   1189   1827 1
  1925   1189   1845 1
  1926   1190   1286 1
  1927   1190   1846 1
  1928   1191   1287 1
  1929   1191   1828 1
  1930   1191   1847 1
  1931   1192   1288 1
  1932   1192   1848 1
  1933   1193   1289 1
  1934   1193   1841 1
  1935   1194   1290 1
  1936   1194   1829 1
  1937   1194   1842 1
  1938   1195   1291 1
  1939   1196   1292 1
  1940   1196   1830 1
  1941   1197   1293 1
  1942   1197   1831 1
  1943   1198   1294 1
  1944   1199   1295 1
  1945   1199   1832 1
  1946   1199   1843 1
  1947   1200   1296 1
  1948   1200   1844 1
  1949   1201   1297 1
  1950   1201   1341 1
  1951   1202   1298 1
  1952   1202   1342 1
  1953   1203   1299 1
  1954   1203   1343 1
  1955   1204   1300 1
  1956   1204   1344 1
  1957   1205   1301 1
  1958   1205   1329 1
  1959   1206   1302 1
  1960   1206   1330 1
  1961   1207   1303 1
  1962   1207   1331 1
  1963   1208   1304 1
  1964   1208   1332 1
  1965   1209   1305 1
  1966   1209   1337 1
  1967   1210   1306 1
  1968   1210   1338 1
  1969   1211   1307 1
  1970   1211   1339 1
  1971   1212   1308 1
  1972   1212   1340 1
  1973   1213   1309 1
  1974   1213   1333 1
  1975   1214   1310 1
  1976   1214   1334 1
  1977   1215   1311 1
  1978   1215   1335 1
  1979   1216   1312 1
  1980   1216   1336 1
  1981   1217   1309 1
  1982   1217   1313 1
  1983   1218   1310 1
  1984   1218   1314 1
  1985   1219   1311 1
  1986   1219   1315 1
  1987   1220   1312 1
  1988   1220   1316 1
  1989   1221   1297 1
  1990   1221   1317 1
  1991   1222   1298 1
  1992   1222   1318 1
  1993   1223   1299 1
  1994   1223   1319 1
  1995   1224   1300 1
  1996   1224   1320 1
  1997   1225   1305 1
  1998   1225   1321 1
  1999   1226   1306 1
  2000   1226   1322 1
  2001   1227   1307 1
  2002   1227   1323 1
  2003   1228   1308 1
  2004   1228   1324 1
  2005   1229   1301 1
  2006   1229   1325 1
  2007   1230   1302 1
  2008   1230   1326 1
  2009   1231   1303 1
  2010   1231   1327 1
  2011   1232   1304 1
  2012   1232   1328 1
  2013   1233   1325 1
  2014   1233   1329 1
  2015   1234   1326 1
  2016   1234   1330 1
  2017   1235   1327 1
  2018   1235   1331 1
  2019   1236   1328 1
  2020   1236   1332 1
  2021   1237   1313 1
  2022   1237   1333 1
  2023   1238   1314 1
  2024   1238   1334 1
  2025   1239   1315 1
  2026   1239   1335 1
  2027   1240   1316 1
  2028   1240   1336 1
  2029   1241   1321 1
  2030   1241   1337 1
  2031   1242   1322 1
  2032   1242   1338 1
  2033   1243   1323 1
  2034   1243   1339 1
  2035   1244   1324 1
  2036   1244   1340 1
  2037   1245   1317 1
  2038   1245   1341 1
  2039   1246   1318 1
  2040   1246   1342 1
  2041   1247   1319 1
  2042   1247   1343 1
  2043   1248   1320 1
  2044   1248   1344 1
  2045   1249   1345 1
  2046   1249   1389 1
  2047   1250   1346 1
  2048   1250   1390 1
  2049   1251   1347 1
  2050   1251   1391 1
  2051   1252   1348 1
  2052   1252   1392 1
  2053   1253   1349 1
  2054   1253   1377 1
  2055   1254   1350 1
  2056   1254   1378 1
  2057   1255   1351 1
  2058   1255   1379 1
  2059   1256   1352 1
  2060   1256   1380 1
  2061   1257   1353 1
  2062   1257   1385 1
  2063   1258   1354 1
  2064   1258   1386 1
  2065   1259   1355 1
  2066   1259   1387 1
  2067   1260   1356 1
  2068   1260   1388 1
  2069   1261   1357 1
  2070   1261   1381 1
  2071   1262   1358 1
  2072   1262   1382 1
  2073   1263   1359 1
  2074   1263   1383 1
  2075   1264   1360 1
  2076   1264   1384 1
  2077   1265   1357 1
  2078   1265   1361 1
  2079   1266   1358 1
  2080   1266   1362 1
  2081   1267   1359 1
  2082   1267   1363 1
  2083   1268   1360 1
  2084   1268   1364 1
  2085   1269   1345 1
  2086   1269   1365 1
  2087   1270   1346 1
  2088   1270   1366 1
  2089   1271   1347 1
  2090   1271   1367 1
  2091   1272   1348 1
  2092   1272   1368 1
  2093   1273   1353 1
  2094   1273   1369 1
  2095   1274   1354 1
  2096   1274   1370 1
  2097   1275   1355 1
  2098   1275   1371 1
  2099   1276   1356 1
  2100   1276   1372 1
  2101   1277   1349 1
  2102   1277   1373 1
  2103   1278   1350 1
  2104   1278   1374 1
  2105   1279   1351 1
  2106   1279   1375 1
  2107   1280   1352 1
  2108   1280   1376 1
  2109   1281   1373 1
  2110   1281   1377 1
  2111   1282   1374 1
  2112   1282   1378 1
  2113   1283   1375 1
  2114   1283   1379 1
  2115   1284   1376 1
  2116   1284   1380 1
  2117   1285   1361 1
  2118   1285   1381 1
  2119   1286   1362 1
  2120   1286   1382 1
  2121   1287   1363 1
  2122   1287   1383 1
  2123   1288   1364 1
  2124   1288   1384 1
  2125   1289   1369 1
  2126   1289   1385 1
  2127   1290   1370 1
  2128   1290   1386 1
  2129   1291   1371 1
  2130   1291   1387 1
  2131   1292   1372 1
  2132   1292   1388 1
  2133   1293   1365 1
  2134   1293   1389 1
  2135   1294   1366 1
  2136   1294   1390 1
  2137   1295   1367 1
  2138   1295   1391 1
  2139   1296   1368 1
  2140   1296   1392 1
  2141   1298   1445 1
  2142   1300   1446 1
  2143   1301   1447 1
  2144   1303   1448 1
  2145   1306   1449 1
  2146   1308   1450 1
  2147   1309   1451 1
  2148   1311   1452 1
  2149   1345   1453 1
  2150   1346   1454 1
  2151   1347   1455 1
  2152   1348   1456 1
  2153   1349   1457 1
  2154   1350   1458 1
  2155   1353   1459 1
  2156   1354   1460 1
  2157   1355   1461 1
  2158   1356   1462 1
  2159   1357   1463 1
  2160   1358   1464 1
