@<TRIPOS>MOLECULE
cu_oh_btc_tbo
1824 2088 0 0 0
SMALL
NO_CHARGES

@<TRIPOS>ATOM
     1 Cu1        18.809900     0.000000    18.809900 Cu   1 RES 0.0000
     2 Cu2        18.809900    26.343000    18.809900 Cu   1 RES 0.0000
     3 Cu3        -5.638400    13.171500     7.533100 Cu   1 RES 0.0000
     4 Cu4        20.704600    13.171500     7.533100 Cu   1 RES 0.0000
     5 Cu5        -5.638400     0.000000     5.638400 Cu   1 RES 0.0000
     6 Cu6        -5.638400     0.000000    31.981400 Cu   1 RES 0.0000
     7 Cu7        -5.638400    26.343000     5.638400 Cu   1 RES 0.0000
     8 Cu8        -5.638400    26.343000    31.981400 Cu   1 RES 0.0000
     9 Cu9        20.704600     0.000000     5.638400 Cu   1 RES 0.0000
    10 Cu10       20.704600     0.000000    31.981400 Cu   1 RES 0.0000
    11 Cu11       20.704600    26.343000     5.638400 Cu   1 RES 0.0000
    12 Cu12       20.704600    26.343000    31.981400 Cu   1 RES 0.0000
    13 Cu13       18.809900     0.000000     7.533100 Cu   1 RES 0.0000
    14 Cu14       18.809900    26.343000     7.533100 Cu   1 RES 0.0000
    15 Cu15       13.171500    18.809900     5.638400 Cu   1 RES 0.0000
    16 Cu16       13.171500    18.809900    31.981400 Cu   1 RES 0.0000
    17 Cu17        0.000000     7.533100     7.533100 Cu   1 RES 0.0000
    18 Cu18       26.343000     7.533100     7.533100 Cu   1 RES 0.0000
    19 Cu19        0.000000     5.638400    -5.638400 Cu   1 RES 0.0000
    20 Cu20        0.000000     5.638400    20.704600 Cu   1 RES 0.0000
    21 Cu21        0.000000    31.981400    -5.638400 Cu   1 RES 0.0000
    22 Cu22        0.000000    31.981400    20.704600 Cu   1 RES 0.0000
    23 Cu23       26.343000     5.638400    -5.638400 Cu   1 RES 0.0000
    24 Cu24       26.343000     5.638400    20.704600 Cu   1 RES 0.0000
    25 Cu25       26.343000    31.981400    -5.638400 Cu   1 RES 0.0000
    26 Cu26       26.343000    31.981400    20.704600 Cu   1 RES 0.0000
    27 Cu27        0.000000     7.533100    18.809900 Cu   1 RES 0.0000
    28 Cu28       26.343000     7.533100    18.809900 Cu   1 RES 0.0000
    29 Cu29       18.809900    18.809900     0.000000 Cu   1 RES 0.0000
    30 Cu30       18.809900    18.809900    26.343000 Cu   1 RES 0.0000
    31 Cu31       -5.638400     7.533100    13.171500 Cu   1 RES 0.0000
    32 Cu32       20.704600     7.533100    13.171500 Cu   1 RES 0.0000
    33 Cu33       18.809900     7.533100     0.000000 Cu   1 RES 0.0000
    34 Cu34       18.809900     7.533100    26.343000 Cu   1 RES 0.0000
    35 Cu35       -5.638400     5.638400     0.000000 Cu   1 RES 0.0000
    36 Cu36       -5.638400     5.638400    26.343000 Cu   1 RES 0.0000
    37 Cu37       -5.638400    31.981400     0.000000 Cu   1 RES 0.0000
    38 Cu38       -5.638400    31.981400    26.343000 Cu   1 RES 0.0000
    39 Cu39       20.704600     5.638400     0.000000 Cu   1 RES 0.0000
    40 Cu40       20.704600     5.638400    26.343000 Cu   1 RES 0.0000
    41 Cu41       20.704600    31.981400     0.000000 Cu   1 RES 0.0000
    42 Cu42       20.704600    31.981400    26.343000 Cu   1 RES 0.0000
    43 Cu43       18.809900    13.171500     5.638400 Cu   1 RES 0.0000
    44 Cu44       18.809900    13.171500    31.981400 Cu   1 RES 0.0000
    45 Cu45       -5.638400     0.000000    -5.638400 Cu   1 RES 0.0000
    46 Cu46       -5.638400     0.000000    20.704600 Cu   1 RES 0.0000
    47 Cu47       -5.638400    26.343000    -5.638400 Cu   1 RES 0.0000
    48 Cu48       -5.638400    26.343000    20.704600 Cu   1 RES 0.0000
    49 Cu49       20.704600     0.000000    -5.638400 Cu   1 RES 0.0000
    50 Cu50       20.704600     0.000000    20.704600 Cu   1 RES 0.0000
    51 Cu51       20.704600    26.343000    -5.638400 Cu   1 RES 0.0000
    52 Cu52       20.704600    26.343000    20.704600 Cu   1 RES 0.0000
    53 Cu53       -5.638400    13.171500    18.809900 Cu   1 RES 0.0000
    54 Cu54       20.704600    13.171500    18.809900 Cu   1 RES 0.0000
    55 Cu55       18.809900    13.171500    -5.638400 Cu   1 RES 0.0000
    56 Cu56       18.809900    13.171500    20.704600 Cu   1 RES 0.0000
    57 Cu57       13.171500     5.638400    18.809900 Cu   1 RES 0.0000
    58 Cu58       13.171500    31.981400    18.809900 Cu   1 RES 0.0000
    59 Cu59       -0.000000    -5.638400    -5.638400 Cu   1 RES 0.0000
    60 Cu60       -0.000000    -5.638400    20.704600 Cu   1 RES 0.0000
    61 Cu61        0.000000    20.704600    -5.638400 Cu   1 RES 0.0000
    62 Cu62        0.000000    20.704600    20.704600 Cu   1 RES 0.0000
    63 Cu63       26.343000    -5.638400    -5.638400 Cu   1 RES 0.0000
    64 Cu64       26.343000    -5.638400    20.704600 Cu   1 RES 0.0000
    65 Cu65       26.343000    20.704600    -5.638400 Cu   1 RES 0.0000
    66 Cu66       26.343000    20.704600    20.704600 Cu   1 RES 0.0000
    67 Cu67        0.000000    18.809900     7.533100 Cu   1 RES 0.0000
    68 Cu68       26.343000    18.809900     7.533100 Cu   1 RES 0.0000
    69 Cu69       -0.000000    -5.638400     5.638400 Cu   1 RES 0.0000
    70 Cu70       -0.000000    -5.638400    31.981400 Cu   1 RES 0.0000
    71 Cu71        0.000000    20.704600     5.638400 Cu   1 RES 0.0000
    72 Cu72        0.000000    20.704600    31.981400 Cu   1 RES 0.0000
    73 Cu73       26.343000    -5.638400     5.638400 Cu   1 RES 0.0000
    74 Cu74       26.343000    -5.638400    31.981400 Cu   1 RES 0.0000
    75 Cu75       26.343000    20.704600     5.638400 Cu   1 RES 0.0000
    76 Cu76       26.343000    20.704600    31.981400 Cu   1 RES 0.0000
    77 Cu77       18.809900     5.638400    13.171500 Cu   1 RES 0.0000
    78 Cu78       18.809900    31.981400    13.171500 Cu   1 RES 0.0000
    79 Cu79       -5.638400    -5.638400    -0.000000 Cu   1 RES 0.0000
    80 Cu80       -5.638400    -5.638400    26.343000 Cu   1 RES 0.0000
    81 Cu81       -5.638400    20.704600     0.000000 Cu   1 RES 0.0000
    82 Cu82       -5.638400    20.704600    26.343000 Cu   1 RES 0.0000
    83 Cu83       20.704600    -5.638400     0.000000 Cu   1 RES 0.0000
    84 Cu84       20.704600    -5.638400    26.343000 Cu   1 RES 0.0000
    85 Cu85       20.704600    20.704600     0.000000 Cu   1 RES 0.0000
    86 Cu86       20.704600    20.704600    26.343000 Cu   1 RES 0.0000
    87 Cu87       18.809900    -5.638400    13.171500 Cu   1 RES 0.0000
    88 Cu88       18.809900    20.704600    13.171500 Cu   1 RES 0.0000
    89 Cu89       -5.638400    18.809900    13.171500 Cu   1 RES 0.0000
    90 Cu90       20.704600    18.809900    13.171500 Cu   1 RES 0.0000
    91 Cu91        5.638400     0.000000     5.638400 Cu   1 RES 0.0000
    92 Cu92        5.638400     0.000000    31.981400 Cu   1 RES 0.0000
    93 Cu93        5.638400    26.343000     5.638400 Cu   1 RES 0.0000
    94 Cu94        5.638400    26.343000    31.981400 Cu   1 RES 0.0000
    95 Cu95       31.981400     0.000000     5.638400 Cu   1 RES 0.0000
    96 Cu96       31.981400     0.000000    31.981400 Cu   1 RES 0.0000
    97 Cu97       31.981400    26.343000     5.638400 Cu   1 RES 0.0000
    98 Cu98       31.981400    26.343000    31.981400 Cu   1 RES 0.0000
    99 Cu99        7.533100    13.171500    -5.638400 Cu   1 RES 0.0000
   100 Cu100       7.533100    13.171500    20.704600 Cu   1 RES 0.0000
   101 Cu101       7.533100     0.000000    18.809900 Cu   1 RES 0.0000
   102 Cu102       7.533100    26.343000    18.809900 Cu   1 RES 0.0000
   103 Cu103       5.638400     0.000000    -5.638400 Cu   1 RES 0.0000
   104 Cu104       5.638400     0.000000    20.704600 Cu   1 RES 0.0000
   105 Cu105       5.638400    26.343000    -5.638400 Cu   1 RES 0.0000
   106 Cu106       5.638400    26.343000    20.704600 Cu   1 RES 0.0000
   107 Cu107      31.981400     0.000000    -5.638400 Cu   1 RES 0.0000
   108 Cu108      31.981400     0.000000    20.704600 Cu   1 RES 0.0000
   109 Cu109      31.981400    26.343000    -5.638400 Cu   1 RES 0.0000
   110 Cu110      31.981400    26.343000    20.704600 Cu   1 RES 0.0000
   111 Cu111       0.000000    18.809900    18.809900 Cu   1 RES 0.0000
   112 Cu112      26.343000    18.809900    18.809900 Cu   1 RES 0.0000
   113 Cu113      13.171500     7.533100    -5.638400 Cu   1 RES 0.0000
   114 Cu114      13.171500     7.533100    20.704600 Cu   1 RES 0.0000
   115 Cu115      13.171500     5.638400     7.533100 Cu   1 RES 0.0000
   116 Cu116      13.171500    31.981400     7.533100 Cu   1 RES 0.0000
   117 Cu117      13.171500     7.533100     5.638400 Cu   1 RES 0.0000
   118 Cu118      13.171500     7.533100    31.981400 Cu   1 RES 0.0000
   119 Cu119       5.638400    18.809900    13.171500 Cu   1 RES 0.0000
   120 Cu120      31.981400    18.809900    13.171500 Cu   1 RES 0.0000
   121 Cu121       7.533100     7.533100     0.000000 Cu   1 RES 0.0000
   122 Cu122       7.533100     7.533100    26.343000 Cu   1 RES 0.0000
   123 Cu123       5.638400     7.533100    13.171500 Cu   1 RES 0.0000
   124 Cu124      31.981400     7.533100    13.171500 Cu   1 RES 0.0000
   125 Cu125       7.533100     5.638400    13.171500 Cu   1 RES 0.0000
   126 Cu126       7.533100    31.981400    13.171500 Cu   1 RES 0.0000
   127 Cu127       5.638400    13.171500    18.809900 Cu   1 RES 0.0000
   128 Cu128      31.981400    13.171500    18.809900 Cu   1 RES 0.0000
   129 Cu129       7.533100     0.000000     7.533100 Cu   1 RES 0.0000
   130 Cu130       7.533100    26.343000     7.533100 Cu   1 RES 0.0000
   131 Cu131       7.533100    13.171500     5.638400 Cu   1 RES 0.0000
   132 Cu132       7.533100    13.171500    31.981400 Cu   1 RES 0.0000
   133 Cu133       5.638400    13.171500     7.533100 Cu   1 RES 0.0000
   134 Cu134      31.981400    13.171500     7.533100 Cu   1 RES 0.0000
   135 Cu135       0.000000     5.638400     5.638400 Cu   1 RES 0.0000
   136 Cu136       0.000000     5.638400    31.981400 Cu   1 RES 0.0000
   137 Cu137       0.000000    31.981400     5.638400 Cu   1 RES 0.0000
   138 Cu138       0.000000    31.981400    31.981400 Cu   1 RES 0.0000
   139 Cu139      26.343000     5.638400     5.638400 Cu   1 RES 0.0000
   140 Cu140      26.343000     5.638400    31.981400 Cu   1 RES 0.0000
   141 Cu141      26.343000    31.981400     5.638400 Cu   1 RES 0.0000
   142 Cu142      26.343000    31.981400    31.981400 Cu   1 RES 0.0000
   143 Cu143      13.171500    -5.638400     7.533100 Cu   1 RES 0.0000
   144 Cu144      13.171500    20.704600     7.533100 Cu   1 RES 0.0000
   145 Cu145      13.171500    18.809900    -5.638400 Cu   1 RES 0.0000
   146 Cu146      13.171500    18.809900    20.704600 Cu   1 RES 0.0000
   147 Cu147      13.171500    -5.638400    18.809900 Cu   1 RES 0.0000
   148 Cu148      13.171500    20.704600    18.809900 Cu   1 RES 0.0000
   149 Cu149       5.638400     5.638400     0.000000 Cu   1 RES 0.0000
   150 Cu150       5.638400     5.638400    26.343000 Cu   1 RES 0.0000
   151 Cu151       5.638400    31.981400     0.000000 Cu   1 RES 0.0000
   152 Cu152       5.638400    31.981400    26.343000 Cu   1 RES 0.0000
   153 Cu153      31.981400     5.638400     0.000000 Cu   1 RES 0.0000
   154 Cu154      31.981400     5.638400    26.343000 Cu   1 RES 0.0000
   155 Cu155      31.981400    31.981400     0.000000 Cu   1 RES 0.0000
   156 Cu156      31.981400    31.981400    26.343000 Cu   1 RES 0.0000
   157 Cu157       7.533100    -5.638400    13.171500 Cu   1 RES 0.0000
   158 Cu158       7.533100    20.704600    13.171500 Cu   1 RES 0.0000
   159 Cu159       5.638400    -5.638400     0.000000 Cu   1 RES 0.0000
   160 Cu160       5.638400    -5.638400    26.343000 Cu   1 RES 0.0000
   161 Cu161       5.638400    20.704600     0.000000 Cu   1 RES 0.0000
   162 Cu162       5.638400    20.704600    26.343000 Cu   1 RES 0.0000
   163 Cu163      31.981400    -5.638400     0.000000 Cu   1 RES 0.0000
   164 Cu164      31.981400    -5.638400    26.343000 Cu   1 RES 0.0000
   165 Cu165      31.981400    20.704600     0.000000 Cu   1 RES 0.0000
   166 Cu166      31.981400    20.704600    26.343000 Cu   1 RES 0.0000
   167 Cu167       7.533100    18.809900     0.000000 Cu   1 RES 0.0000
   168 Cu168       7.533100    18.809900    26.343000 Cu   1 RES 0.0000
   169 H169      16.271002    20.213126     3.099502 H    1 RES 0.0000
   170 H170      16.271002    20.213126    29.442502 H    1 RES 0.0000
   171 H171      16.271002     6.129874    -3.099502 H    1 RES 0.0000
   172 H172      16.271002     6.129874    23.243498 H    1 RES 0.0000
   173 H173      -3.099502     7.041626    -3.099502 H    1 RES 0.0000
   174 H174      -3.099502     7.041626    23.243498 H    1 RES 0.0000
   175 H175      23.243498     7.041626    -3.099502 H    1 RES 0.0000
   176 H176      23.243498     7.041626    23.243498 H    1 RES 0.0000
   177 H177      -3.099502    19.301374     3.099502 H    1 RES 0.0000
   178 H178      -3.099502    19.301374    29.442502 H    1 RES 0.0000
   179 H179      23.243498    19.301374     3.099502 H    1 RES 0.0000
   180 H180      23.243498    19.301374    29.442502 H    1 RES 0.0000
   181 H181      20.213126    16.271002     3.099502 H    1 RES 0.0000
   182 H182      20.213126    16.271002    29.442502 H    1 RES 0.0000
   183 H183      19.301374    -3.099502     3.099502 H    1 RES 0.0000
   184 H184      19.301374    -3.099502    29.442502 H    1 RES 0.0000
   185 H185      19.301374    23.243498     3.099502 H    1 RES 0.0000
   186 H186      19.301374    23.243498    29.442502 H    1 RES 0.0000
   187 H187      20.213126    10.071998    -3.099502 H    1 RES 0.0000
   188 H188      20.213126    10.071998    23.243498 H    1 RES 0.0000
   189 H189      19.301374     3.099502    -3.099502 H    1 RES 0.0000
   190 H190      19.301374     3.099502    23.243498 H    1 RES 0.0000
   191 H191      19.301374    29.442502    -3.099502 H    1 RES 0.0000
   192 H192      19.301374    29.442502    23.243498 H    1 RES 0.0000
   193 H193      16.271002     6.129874     3.099502 H    1 RES 0.0000
   194 H194      16.271002     6.129874    29.442502 H    1 RES 0.0000
   195 H195      -3.099502     7.041626     3.099502 H    1 RES 0.0000
   196 H196      -3.099502     7.041626    29.442502 H    1 RES 0.0000
   197 H197      23.243498     7.041626     3.099502 H    1 RES 0.0000
   198 H198      23.243498     7.041626    29.442502 H    1 RES 0.0000
   199 H199      -3.099502    19.301374    -3.099502 H    1 RES 0.0000
   200 H200      -3.099502    19.301374    23.243498 H    1 RES 0.0000
   201 H201      23.243498    19.301374    -3.099502 H    1 RES 0.0000
   202 H202      23.243498    19.301374    23.243498 H    1 RES 0.0000
   203 H203      16.271002    20.213126    -3.099502 H    1 RES 0.0000
   204 H204      16.271002    20.213126    23.243498 H    1 RES 0.0000
   205 H205      16.271002    -3.099502    20.213126 H    1 RES 0.0000
   206 H206      16.271002    23.243498    20.213126 H    1 RES 0.0000
   207 H207      16.271002     3.099502     6.129874 H    1 RES 0.0000
   208 H208      16.271002    29.442502     6.129874 H    1 RES 0.0000
   209 H209      -3.099502    16.271002    20.213126 H    1 RES 0.0000
   210 H210      23.243498    16.271002    20.213126 H    1 RES 0.0000
   211 H211      -3.099502    10.071998     6.129874 H    1 RES 0.0000
   212 H212      23.243498    10.071998     6.129874 H    1 RES 0.0000
   213 H213      16.271002     7.041626    16.271002 H    1 RES 0.0000
   214 H214      16.271002    19.301374    10.071998 H    1 RES 0.0000
   215 H215      -3.099502    20.213126    10.071998 H    1 RES 0.0000
   216 H216      23.243498    20.213126    10.071998 H    1 RES 0.0000
   217 H217      -3.099502     6.129874    16.271002 H    1 RES 0.0000
   218 H218      23.243498     6.129874    16.271002 H    1 RES 0.0000
   219 H219      20.213126     3.099502    16.271002 H    1 RES 0.0000
   220 H220      20.213126    29.442502    16.271002 H    1 RES 0.0000
   221 H221      19.301374    10.071998    16.271002 H    1 RES 0.0000
   222 H222      20.213126    -3.099502    10.071998 H    1 RES 0.0000
   223 H223      20.213126    23.243498    10.071998 H    1 RES 0.0000
   224 H224      19.301374    16.271002    10.071998 H    1 RES 0.0000
   225 H225      16.271002    19.301374    16.271002 H    1 RES 0.0000
   226 H226      -3.099502    20.213126    16.271002 H    1 RES 0.0000
   227 H227      23.243498    20.213126    16.271002 H    1 RES 0.0000
   228 H228      -3.099502     6.129874    10.071998 H    1 RES 0.0000
   229 H229      23.243498     6.129874    10.071998 H    1 RES 0.0000
   230 H230      16.271002     7.041626    10.071998 H    1 RES 0.0000
   231 H231      16.271002    10.071998     7.041626 H    1 RES 0.0000
   232 H232      16.271002    16.271002    19.301374 H    1 RES 0.0000
   233 H233      -3.099502     3.099502     7.041626 H    1 RES 0.0000
   234 H234      -3.099502    29.442502     7.041626 H    1 RES 0.0000
   235 H235      23.243498     3.099502     7.041626 H    1 RES 0.0000
   236 H236      23.243498    29.442502     7.041626 H    1 RES 0.0000
   237 H237      -3.099502    -3.099502    19.301374 H    1 RES 0.0000
   238 H238      -3.099502    23.243498    19.301374 H    1 RES 0.0000
   239 H239      23.243498    -3.099502    19.301374 H    1 RES 0.0000
   240 H240      23.243498    23.243498    19.301374 H    1 RES 0.0000
   241 H241       3.099502    20.213126    16.271002 H    1 RES 0.0000
   242 H242      29.442502    20.213126    16.271002 H    1 RES 0.0000
   243 H243       3.099502     6.129874    10.071998 H    1 RES 0.0000
   244 H244      29.442502     6.129874    10.071998 H    1 RES 0.0000
   245 H245      10.071998     7.041626    10.071998 H    1 RES 0.0000
   246 H246      10.071998    19.301374    16.271002 H    1 RES 0.0000
   247 H247       7.041626    16.271002    16.271002 H    1 RES 0.0000
   248 H248       6.129874    -3.099502    16.271002 H    1 RES 0.0000
   249 H249       6.129874    23.243498    16.271002 H    1 RES 0.0000
   250 H250       7.041626    10.071998    10.071998 H    1 RES 0.0000
   251 H251       6.129874     3.099502    10.071998 H    1 RES 0.0000
   252 H252       6.129874    29.442502    10.071998 H    1 RES 0.0000
   253 H253       3.099502     6.129874    16.271002 H    1 RES 0.0000
   254 H254      29.442502     6.129874    16.271002 H    1 RES 0.0000
   255 H255      10.071998     7.041626    16.271002 H    1 RES 0.0000
   256 H256      10.071998    19.301374    10.071998 H    1 RES 0.0000
   257 H257       3.099502    20.213126    10.071998 H    1 RES 0.0000
   258 H258      29.442502    20.213126    10.071998 H    1 RES 0.0000
   259 H259       3.099502    -3.099502     7.041626 H    1 RES 0.0000
   260 H260       3.099502    23.243498     7.041626 H    1 RES 0.0000
   261 H261      29.442502    -3.099502     7.041626 H    1 RES 0.0000
   262 H262      29.442502    23.243498     7.041626 H    1 RES 0.0000
   263 H263       3.099502     3.099502    19.301374 H    1 RES 0.0000
   264 H264       3.099502    29.442502    19.301374 H    1 RES 0.0000
   265 H265      29.442502     3.099502    19.301374 H    1 RES 0.0000
   266 H266      29.442502    29.442502    19.301374 H    1 RES 0.0000
   267 H267      10.071998    16.271002     7.041626 H    1 RES 0.0000
   268 H268      10.071998    10.071998    19.301374 H    1 RES 0.0000
   269 H269       3.099502     7.041626     3.099502 H    1 RES 0.0000
   270 H270       3.099502     7.041626    29.442502 H    1 RES 0.0000
   271 H271      29.442502     7.041626     3.099502 H    1 RES 0.0000
   272 H272      29.442502     7.041626    29.442502 H    1 RES 0.0000
   273 H273       3.099502    19.301374    -3.099502 H    1 RES 0.0000
   274 H274       3.099502    19.301374    23.243498 H    1 RES 0.0000
   275 H275      29.442502    19.301374    -3.099502 H    1 RES 0.0000
   276 H276      29.442502    19.301374    23.243498 H    1 RES 0.0000
   277 H277      10.071998    20.213126    -3.099502 H    1 RES 0.0000
   278 H278      10.071998    20.213126    23.243498 H    1 RES 0.0000
   279 H279      10.071998     6.129874     3.099502 H    1 RES 0.0000
   280 H280      10.071998     6.129874    29.442502 H    1 RES 0.0000
   281 H281       7.041626     3.099502     3.099502 H    1 RES 0.0000
   282 H282       7.041626     3.099502    29.442502 H    1 RES 0.0000
   283 H283       7.041626    29.442502     3.099502 H    1 RES 0.0000
   284 H284       7.041626    29.442502    29.442502 H    1 RES 0.0000
   285 H285       6.129874    10.071998     3.099502 H    1 RES 0.0000
   286 H286       6.129874    10.071998    29.442502 H    1 RES 0.0000
   287 H287       7.041626    -3.099502    -3.099502 H    1 RES 0.0000
   288 H288       7.041626    -3.099502    23.243498 H    1 RES 0.0000
   289 H289       7.041626    23.243498    -3.099502 H    1 RES 0.0000
   290 H290       7.041626    23.243498    23.243498 H    1 RES 0.0000
   291 H291       6.129874    16.271002    -3.099502 H    1 RES 0.0000
   292 H292       6.129874    16.271002    23.243498 H    1 RES 0.0000
   293 H293       3.099502    19.301374     3.099502 H    1 RES 0.0000
   294 H294       3.099502    19.301374    29.442502 H    1 RES 0.0000
   295 H295      29.442502    19.301374     3.099502 H    1 RES 0.0000
   296 H296      29.442502    19.301374    29.442502 H    1 RES 0.0000
   297 H297      10.071998    20.213126     3.099502 H    1 RES 0.0000
   298 H298      10.071998    20.213126    29.442502 H    1 RES 0.0000
   299 H299      10.071998     6.129874    -3.099502 H    1 RES 0.0000
   300 H300      10.071998     6.129874    23.243498 H    1 RES 0.0000
   301 H301       3.099502     7.041626    -3.099502 H    1 RES 0.0000
   302 H302       3.099502     7.041626    23.243498 H    1 RES 0.0000
   303 H303      29.442502     7.041626    -3.099502 H    1 RES 0.0000
   304 H304      29.442502     7.041626    23.243498 H    1 RES 0.0000
   305 H305       3.099502    10.071998    20.213126 H    1 RES 0.0000
   306 H306      29.442502    10.071998    20.213126 H    1 RES 0.0000
   307 H307       3.099502    16.271002     6.129874 H    1 RES 0.0000
   308 H308      29.442502    16.271002     6.129874 H    1 RES 0.0000
   309 H309      10.071998     3.099502    20.213126 H    1 RES 0.0000
   310 H310      10.071998    29.442502    20.213126 H    1 RES 0.0000
   311 H311      10.071998    -3.099502     6.129874 H    1 RES 0.0000
   312 H312      10.071998    23.243498     6.129874 H    1 RES 0.0000
   313 H313      15.760431     2.588931    19.204587 H    1 RES 0.0000
   314 H314      15.760431    28.931931    19.204587 H    1 RES 0.0000
   315 H315      -2.588931    15.760431     7.138413 H    1 RES 0.0000
   316 H316      23.754069    15.760431     7.138413 H    1 RES 0.0000
   317 H317      -2.588931    10.582569    19.204587 H    1 RES 0.0000
   318 H318      23.754069    10.582569    19.204587 H    1 RES 0.0000
   319 H319      15.760431    -2.588931     7.138413 H    1 RES 0.0000
   320 H320      15.760431    23.754069     7.138413 H    1 RES 0.0000
   321 H321      19.204587    10.582569     2.588931 H    1 RES 0.0000
   322 H322      19.204587    10.582569    28.931931 H    1 RES 0.0000
   323 H323      20.309913    -2.588931    -2.588931 H    1 RES 0.0000
   324 H324      20.309913    -2.588931    23.754069 H    1 RES 0.0000
   325 H325      20.309913    23.754069    -2.588931 H    1 RES 0.0000
   326 H326      20.309913    23.754069    23.754069 H    1 RES 0.0000
   327 H327      19.204587    15.760431    -2.588931 H    1 RES 0.0000
   328 H328      19.204587    15.760431    23.754069 H    1 RES 0.0000
   329 H329      20.309913     2.588931     2.588931 H    1 RES 0.0000
   330 H330      20.309913     2.588931    28.931931 H    1 RES 0.0000
   331 H331      20.309913    28.931931     2.588931 H    1 RES 0.0000
   332 H332      20.309913    28.931931    28.931931 H    1 RES 0.0000
   333 H333      15.760431    15.760431     6.033087 H    1 RES 0.0000
   334 H334      -2.588931     2.588931    20.309913 H    1 RES 0.0000
   335 H335      -2.588931    28.931931    20.309913 H    1 RES 0.0000
   336 H336      23.754069     2.588931    20.309913 H    1 RES 0.0000
   337 H337      23.754069    28.931931    20.309913 H    1 RES 0.0000
   338 H338      -2.588931    -2.588931     6.033087 H    1 RES 0.0000
   339 H339      -2.588931    23.754069     6.033087 H    1 RES 0.0000
   340 H340      23.754069    -2.588931     6.033087 H    1 RES 0.0000
   341 H341      23.754069    23.754069     6.033087 H    1 RES 0.0000
   342 H342      15.760431    10.582569    20.309913 H    1 RES 0.0000
   343 H343      19.204587    -2.588931    15.760431 H    1 RES 0.0000
   344 H344      19.204587    23.754069    15.760431 H    1 RES 0.0000
   345 H345      20.309913    10.582569    10.582569 H    1 RES 0.0000
   346 H346      19.204587     2.588931    10.582569 H    1 RES 0.0000
   347 H347      19.204587    28.931931    10.582569 H    1 RES 0.0000
   348 H348      20.309913    15.760431    15.760431 H    1 RES 0.0000
   349 H349       2.588931     2.588931     6.033087 H    1 RES 0.0000
   350 H350       2.588931    28.931931     6.033087 H    1 RES 0.0000
   351 H351      28.931931     2.588931     6.033087 H    1 RES 0.0000
   352 H352      28.931931    28.931931     6.033087 H    1 RES 0.0000
   353 H353      10.582569    15.760431    20.309913 H    1 RES 0.0000
   354 H354      10.582569    10.582569     6.033087 H    1 RES 0.0000
   355 H355       2.588931    -2.588931    20.309913 H    1 RES 0.0000
   356 H356       2.588931    23.754069    20.309913 H    1 RES 0.0000
   357 H357      28.931931    -2.588931    20.309913 H    1 RES 0.0000
   358 H358      28.931931    23.754069    20.309913 H    1 RES 0.0000
   359 H359       6.033087    10.582569    15.760431 H    1 RES 0.0000
   360 H360       7.138413    -2.588931    10.582569 H    1 RES 0.0000
   361 H361       7.138413    23.754069    10.582569 H    1 RES 0.0000
   362 H362       6.033087    15.760431    10.582569 H    1 RES 0.0000
   363 H363       7.138413     2.588931    15.760431 H    1 RES 0.0000
   364 H364       7.138413    28.931931    15.760431 H    1 RES 0.0000
   365 H365       2.588931    15.760431    19.204587 H    1 RES 0.0000
   366 H366      28.931931    15.760431    19.204587 H    1 RES 0.0000
   367 H367      10.582569     2.588931     7.138413 H    1 RES 0.0000
   368 H368      10.582569    28.931931     7.138413 H    1 RES 0.0000
   369 H369      10.582569    -2.588931    19.204587 H    1 RES 0.0000
   370 H370      10.582569    23.754069    19.204587 H    1 RES 0.0000
   371 H371       2.588931    10.582569     7.138413 H    1 RES 0.0000
   372 H372      28.931931    10.582569     7.138413 H    1 RES 0.0000
   373 H373       6.033087    -2.588931     2.588931 H    1 RES 0.0000
   374 H374       6.033087    -2.588931    28.931931 H    1 RES 0.0000
   375 H375       6.033087    23.754069     2.588931 H    1 RES 0.0000
   376 H376       6.033087    23.754069    28.931931 H    1 RES 0.0000
   377 H377       7.138413    10.582569    -2.588931 H    1 RES 0.0000
   378 H378       7.138413    10.582569    23.754069 H    1 RES 0.0000
   379 H379       6.033087     2.588931    -2.588931 H    1 RES 0.0000
   380 H380       6.033087     2.588931    23.754069 H    1 RES 0.0000
   381 H381       6.033087    28.931931    -2.588931 H    1 RES 0.0000
   382 H382       6.033087    28.931931    23.754069 H    1 RES 0.0000
   383 H383       7.138413    15.760431     2.588931 H    1 RES 0.0000
   384 H384       7.138413    15.760431    28.931931 H    1 RES 0.0000
   385 C385      18.522283     1.813524    -5.350783 C    1 RES 0.0000
   386 C386      18.522283     1.813524    20.992217 C    1 RES 0.0000
   387 C387      18.522283    28.156524    -5.350783 C    1 RES 0.0000
   388 C388      18.522283    28.156524    20.992217 C    1 RES 0.0000
   389 C389      -5.350783    14.985024     5.350783 C    1 RES 0.0000
   390 C390      -5.350783    14.985024    31.693783 C    1 RES 0.0000
   391 C391      20.992217    14.985024     5.350783 C    1 RES 0.0000
   392 C392      20.992217    14.985024    31.693783 C    1 RES 0.0000
   393 C393      -5.350783    11.357976    -5.350783 C    1 RES 0.0000
   394 C394      -5.350783    11.357976    20.992217 C    1 RES 0.0000
   395 C395      20.992217    11.357976    -5.350783 C    1 RES 0.0000
   396 C396      20.992217    11.357976    20.992217 C    1 RES 0.0000
   397 C397      18.522283    -1.813524     5.350783 C    1 RES 0.0000
   398 C398      18.522283    -1.813524    31.693783 C    1 RES 0.0000
   399 C399      18.522283    24.529476     5.350783 C    1 RES 0.0000
   400 C400      18.522283    24.529476    31.693783 C    1 RES 0.0000
   401 C401      14.985024    -5.350783     5.350783 C    1 RES 0.0000
   402 C402      14.985024    -5.350783    31.693783 C    1 RES 0.0000
   403 C403      14.985024    20.992217     5.350783 C    1 RES 0.0000
   404 C404      14.985024    20.992217    31.693783 C    1 RES 0.0000
   405 C405      14.985024     5.350783    -5.350783 C    1 RES 0.0000
   406 C406      14.985024     5.350783    20.992217 C    1 RES 0.0000
   407 C407      14.985024    31.693783    -5.350783 C    1 RES 0.0000
   408 C408      14.985024    31.693783    20.992217 C    1 RES 0.0000
   409 C409      -1.813524     7.820717    -5.350783 C    1 RES 0.0000
   410 C410      -1.813524     7.820717    20.992217 C    1 RES 0.0000
   411 C411      24.529476     7.820717    -5.350783 C    1 RES 0.0000
   412 C412      24.529476     7.820717    20.992217 C    1 RES 0.0000
   413 C413      -1.813524    18.522283     5.350783 C    1 RES 0.0000
   414 C414      -1.813524    18.522283    31.693783 C    1 RES 0.0000
   415 C415      24.529476    18.522283     5.350783 C    1 RES 0.0000
   416 C416      24.529476    18.522283    31.693783 C    1 RES 0.0000
   417 C417      -5.350783    18.522283     1.813524 C    1 RES 0.0000
   418 C418      -5.350783    18.522283    28.156524 C    1 RES 0.0000
   419 C419      20.992217    18.522283     1.813524 C    1 RES 0.0000
   420 C420      20.992217    18.522283    28.156524 C    1 RES 0.0000
   421 C421      18.522283    -5.350783     1.813524 C    1 RES 0.0000
   422 C422      18.522283    -5.350783    28.156524 C    1 RES 0.0000
   423 C423      18.522283    20.992217     1.813524 C    1 RES 0.0000
   424 C424      18.522283    20.992217    28.156524 C    1 RES 0.0000
   425 C425      -5.350783     7.820717    -1.813524 C    1 RES 0.0000
   426 C426      -5.350783     7.820717    24.529476 C    1 RES 0.0000
   427 C427      20.992217     7.820717    -1.813524 C    1 RES 0.0000
   428 C428      20.992217     7.820717    24.529476 C    1 RES 0.0000
   429 C429      18.522283     5.350783    -1.813524 C    1 RES 0.0000
   430 C430      18.522283     5.350783    24.529476 C    1 RES 0.0000
   431 C431      18.522283    31.693783    -1.813524 C    1 RES 0.0000
   432 C432      18.522283    31.693783    24.529476 C    1 RES 0.0000
   433 C433      -5.350783    11.357976     5.350783 C    1 RES 0.0000
   434 C434      -5.350783    11.357976    31.693783 C    1 RES 0.0000
   435 C435      20.992217    11.357976     5.350783 C    1 RES 0.0000
   436 C436      20.992217    11.357976    31.693783 C    1 RES 0.0000
   437 C437      18.522283    -1.813524    -5.350783 C    1 RES 0.0000
   438 C438      18.522283    -1.813524    20.992217 C    1 RES 0.0000
   439 C439      18.522283    24.529476    -5.350783 C    1 RES 0.0000
   440 C440      18.522283    24.529476    20.992217 C    1 RES 0.0000
   441 C441      -5.350783    14.985024    -5.350783 C    1 RES 0.0000
   442 C442      -5.350783    14.985024    20.992217 C    1 RES 0.0000
   443 C443      20.992217    14.985024    -5.350783 C    1 RES 0.0000
   444 C444      20.992217    14.985024    20.992217 C    1 RES 0.0000
   445 C445      18.522283     1.813524     5.350783 C    1 RES 0.0000
   446 C446      18.522283     1.813524    31.693783 C    1 RES 0.0000
   447 C447      18.522283    28.156524     5.350783 C    1 RES 0.0000
   448 C448      18.522283    28.156524    31.693783 C    1 RES 0.0000
   449 C449      18.522283     5.350783     1.813524 C    1 RES 0.0000
   450 C450      18.522283     5.350783    28.156524 C    1 RES 0.0000
   451 C451      18.522283    31.693783     1.813524 C    1 RES 0.0000
   452 C452      18.522283    31.693783    28.156524 C    1 RES 0.0000
   453 C453      -5.350783     7.820717     1.813524 C    1 RES 0.0000
   454 C454      -5.350783     7.820717    28.156524 C    1 RES 0.0000
   455 C455      20.992217     7.820717     1.813524 C    1 RES 0.0000
   456 C456      20.992217     7.820717    28.156524 C    1 RES 0.0000
   457 C457      -5.350783    18.522283    -1.813524 C    1 RES 0.0000
   458 C458      -5.350783    18.522283    24.529476 C    1 RES 0.0000
   459 C459      20.992217    18.522283    -1.813524 C    1 RES 0.0000
   460 C460      20.992217    18.522283    24.529476 C    1 RES 0.0000
   461 C461      18.522283    -5.350783    -1.813524 C    1 RES 0.0000
   462 C462      18.522283    -5.350783    24.529476 C    1 RES 0.0000
   463 C463      18.522283    20.992217    -1.813524 C    1 RES 0.0000
   464 C464      18.522283    20.992217    24.529476 C    1 RES 0.0000
   465 C465      14.985024    -5.350783    -5.350783 C    1 RES 0.0000
   466 C466      14.985024    -5.350783    20.992217 C    1 RES 0.0000
   467 C467      14.985024    20.992217    -5.350783 C    1 RES 0.0000
   468 C468      14.985024    20.992217    20.992217 C    1 RES 0.0000
   469 C469      14.985024     5.350783     5.350783 C    1 RES 0.0000
   470 C470      14.985024     5.350783    31.693783 C    1 RES 0.0000
   471 C471      14.985024    31.693783     5.350783 C    1 RES 0.0000
   472 C472      14.985024    31.693783    31.693783 C    1 RES 0.0000
   473 C473      -1.813524    18.522283    -5.350783 C    1 RES 0.0000
   474 C474      -1.813524    18.522283    20.992217 C    1 RES 0.0000
   475 C475      24.529476    18.522283    -5.350783 C    1 RES 0.0000
   476 C476      24.529476    18.522283    20.992217 C    1 RES 0.0000
   477 C477      -1.813524     7.820717     5.350783 C    1 RES 0.0000
   478 C478      -1.813524     7.820717    31.693783 C    1 RES 0.0000
   479 C479      24.529476     7.820717     5.350783 C    1 RES 0.0000
   480 C480      24.529476     7.820717    31.693783 C    1 RES 0.0000
   481 C481      17.853451     2.983195    -4.681951 C    1 RES 0.0000
   482 C482      17.853451     2.983195    21.661049 C    1 RES 0.0000
   483 C483      17.853451    29.326195    -4.681951 C    1 RES 0.0000
   484 C484      17.853451    29.326195    21.661049 C    1 RES 0.0000
   485 C485      -4.681951    16.154695     4.681951 C    1 RES 0.0000
   486 C486      -4.681951    16.154695    31.024951 C    1 RES 0.0000
   487 C487      21.661049    16.154695     4.681951 C    1 RES 0.0000
   488 C488      21.661049    16.154695    31.024951 C    1 RES 0.0000
   489 C489      -4.681951    10.188305    -4.681951 C    1 RES 0.0000
   490 C490      -4.681951    10.188305    21.661049 C    1 RES 0.0000
   491 C491      21.661049    10.188305    -4.681951 C    1 RES 0.0000
   492 C492      21.661049    10.188305    21.661049 C    1 RES 0.0000
   493 C493      17.853451    -2.983195     4.681951 C    1 RES 0.0000
   494 C494      17.853451    -2.983195    31.024951 C    1 RES 0.0000
   495 C495      17.853451    23.359805     4.681951 C    1 RES 0.0000
   496 C496      17.853451    23.359805    31.024951 C    1 RES 0.0000
   497 C497      16.154695    -4.681951     4.681951 C    1 RES 0.0000
   498 C498      16.154695    -4.681951    31.024951 C    1 RES 0.0000
   499 C499      16.154695    21.661049     4.681951 C    1 RES 0.0000
   500 C500      16.154695    21.661049    31.024951 C    1 RES 0.0000
   501 C501      16.154695     4.681951    -4.681951 C    1 RES 0.0000
   502 C502      16.154695     4.681951    21.661049 C    1 RES 0.0000
   503 C503      16.154695    31.024951    -4.681951 C    1 RES 0.0000
   504 C504      16.154695    31.024951    21.661049 C    1 RES 0.0000
   505 C505      -2.983195     8.489549    -4.681951 C    1 RES 0.0000
   506 C506      -2.983195     8.489549    21.661049 C    1 RES 0.0000
   507 C507      23.359805     8.489549    -4.681951 C    1 RES 0.0000
   508 C508      23.359805     8.489549    21.661049 C    1 RES 0.0000
   509 C509      -2.983195    17.853451     4.681951 C    1 RES 0.0000
   510 C510      -2.983195    17.853451    31.024951 C    1 RES 0.0000
   511 C511      23.359805    17.853451     4.681951 C    1 RES 0.0000
   512 C512      23.359805    17.853451    31.024951 C    1 RES 0.0000
   513 C513      -4.681951    17.853451     2.983195 C    1 RES 0.0000
   514 C514      -4.681951    17.853451    29.326195 C    1 RES 0.0000
   515 C515      21.661049    17.853451     2.983195 C    1 RES 0.0000
   516 C516      21.661049    17.853451    29.326195 C    1 RES 0.0000
   517 C517      17.853451    -4.681951     2.983195 C    1 RES 0.0000
   518 C518      17.853451    -4.681951    29.326195 C    1 RES 0.0000
   519 C519      17.853451    21.661049     2.983195 C    1 RES 0.0000
   520 C520      17.853451    21.661049    29.326195 C    1 RES 0.0000
   521 C521      -4.681951     8.489549    -2.983195 C    1 RES 0.0000
   522 C522      -4.681951     8.489549    23.359805 C    1 RES 0.0000
   523 C523      21.661049     8.489549    -2.983195 C    1 RES 0.0000
   524 C524      21.661049     8.489549    23.359805 C    1 RES 0.0000
   525 C525      17.853451     4.681951    -2.983195 C    1 RES 0.0000
   526 C526      17.853451     4.681951    23.359805 C    1 RES 0.0000
   527 C527      17.853451    31.024951    -2.983195 C    1 RES 0.0000
   528 C528      17.853451    31.024951    23.359805 C    1 RES 0.0000
   529 C529      -4.681951    10.188305     4.681951 C    1 RES 0.0000
   530 C530      -4.681951    10.188305    31.024951 C    1 RES 0.0000
   531 C531      21.661049    10.188305     4.681951 C    1 RES 0.0000
   532 C532      21.661049    10.188305    31.024951 C    1 RES 0.0000
   533 C533      17.853451    -2.983195    -4.681951 C    1 RES 0.0000
   534 C534      17.853451    -2.983195    21.661049 C    1 RES 0.0000
   535 C535      17.853451    23.359805    -4.681951 C    1 RES 0.0000
   536 C536      17.853451    23.359805    21.661049 C    1 RES 0.0000
   537 C537      -4.681951    16.154695    -4.681951 C    1 RES 0.0000
   538 C538      -4.681951    16.154695    21.661049 C    1 RES 0.0000
   539 C539      21.661049    16.154695    -4.681951 C    1 RES 0.0000
   540 C540      21.661049    16.154695    21.661049 C    1 RES 0.0000
   541 C541      17.853451     2.983195     4.681951 C    1 RES 0.0000
   542 C542      17.853451     2.983195    31.024951 C    1 RES 0.0000
   543 C543      17.853451    29.326195     4.681951 C    1 RES 0.0000
   544 C544      17.853451    29.326195    31.024951 C    1 RES 0.0000
   545 C545      17.853451     4.681951     2.983195 C    1 RES 0.0000
   546 C546      17.853451     4.681951    29.326195 C    1 RES 0.0000
   547 C547      17.853451    31.024951     2.983195 C    1 RES 0.0000
   548 C548      17.853451    31.024951    29.326195 C    1 RES 0.0000
   549 C549      -4.681951     8.489549     2.983195 C    1 RES 0.0000
   550 C550      -4.681951     8.489549    29.326195 C    1 RES 0.0000
   551 C551      21.661049     8.489549     2.983195 C    1 RES 0.0000
   552 C552      21.661049     8.489549    29.326195 C    1 RES 0.0000
   553 C553      -4.681951    17.853451    -2.983195 C    1 RES 0.0000
   554 C554      -4.681951    17.853451    23.359805 C    1 RES 0.0000
   555 C555      21.661049    17.853451    -2.983195 C    1 RES 0.0000
   556 C556      21.661049    17.853451    23.359805 C    1 RES 0.0000
   557 C557      17.853451    -4.681951    -2.983195 C    1 RES 0.0000
   558 C558      17.853451    -4.681951    23.359805 C    1 RES 0.0000
   559 C559      17.853451    21.661049    -2.983195 C    1 RES 0.0000
   560 C560      17.853451    21.661049    23.359805 C    1 RES 0.0000
   561 C561      16.154695    -4.681951    -4.681951 C    1 RES 0.0000
   562 C562      16.154695    -4.681951    21.661049 C    1 RES 0.0000
   563 C563      16.154695    21.661049    -4.681951 C    1 RES 0.0000
   564 C564      16.154695    21.661049    21.661049 C    1 RES 0.0000
   565 C565      16.154695     4.681951     4.681951 C    1 RES 0.0000
   566 C566      16.154695     4.681951    31.024951 C    1 RES 0.0000
   567 C567      16.154695    31.024951     4.681951 C    1 RES 0.0000
   568 C568      16.154695    31.024951    31.024951 C    1 RES 0.0000
   569 C569      -2.983195    17.853451    -4.681951 C    1 RES 0.0000
   570 C570      -2.983195    17.853451    21.661049 C    1 RES 0.0000
   571 C571      23.359805    17.853451    -4.681951 C    1 RES 0.0000
   572 C572      23.359805    17.853451    21.661049 C    1 RES 0.0000
   573 C573      -2.983195     8.489549     4.681951 C    1 RES 0.0000
   574 C574      -2.983195     8.489549    31.024951 C    1 RES 0.0000
   575 C575      23.359805     8.489549     4.681951 C    1 RES 0.0000
   576 C576      23.359805     8.489549    31.024951 C    1 RES 0.0000
   577 C577      16.715408     3.543908    -5.252031 C    1 RES 0.0000
   578 C578      16.715408     3.543908    21.090969 C    1 RES 0.0000
   579 C579      16.715408    29.886908    -5.252031 C    1 RES 0.0000
   580 C580      16.715408    29.886908    21.090969 C    1 RES 0.0000
   581 C581      -3.543908    16.715408     5.252031 C    1 RES 0.0000
   582 C582      -3.543908    16.715408    31.595031 C    1 RES 0.0000
   583 C583      22.799092    16.715408     5.252031 C    1 RES 0.0000
   584 C584      22.799092    16.715408    31.595031 C    1 RES 0.0000
   585 C585      -3.543908     9.627592    -5.252031 C    1 RES 0.0000
   586 C586      -3.543908     9.627592    21.090969 C    1 RES 0.0000
   587 C587      22.799092     9.627592    -5.252031 C    1 RES 0.0000
   588 C588      22.799092     9.627592    21.090969 C    1 RES 0.0000
   589 C589      16.715408    -3.543908     5.252031 C    1 RES 0.0000
   590 C590      16.715408    -3.543908    31.595031 C    1 RES 0.0000
   591 C591      16.715408    22.799092     5.252031 C    1 RES 0.0000
   592 C592      16.715408    22.799092    31.595031 C    1 RES 0.0000
   593 C593      16.715408    -5.252031     3.543908 C    1 RES 0.0000
   594 C594      16.715408    -5.252031    29.886908 C    1 RES 0.0000
   595 C595      16.715408    21.090969     3.543908 C    1 RES 0.0000
   596 C596      16.715408    21.090969    29.886908 C    1 RES 0.0000
   597 C597      16.715408     5.252031    -3.543908 C    1 RES 0.0000
   598 C598      16.715408     5.252031    22.799092 C    1 RES 0.0000
   599 C599      16.715408    31.595031    -3.543908 C    1 RES 0.0000
   600 C600      16.715408    31.595031    22.799092 C    1 RES 0.0000
   601 C601      -3.543908     7.919469    -3.543908 C    1 RES 0.0000
   602 C602      -3.543908     7.919469    22.799092 C    1 RES 0.0000
   603 C603      22.799092     7.919469    -3.543908 C    1 RES 0.0000
   604 C604      22.799092     7.919469    22.799092 C    1 RES 0.0000
   605 C605      -3.543908    18.423531     3.543908 C    1 RES 0.0000
   606 C606      -3.543908    18.423531    29.886908 C    1 RES 0.0000
   607 C607      22.799092    18.423531     3.543908 C    1 RES 0.0000
   608 C608      22.799092    18.423531    29.886908 C    1 RES 0.0000
   609 C609      -5.252031    16.715408     3.543908 C    1 RES 0.0000
   610 C610      -5.252031    16.715408    29.886908 C    1 RES 0.0000
   611 C611      21.090969    16.715408     3.543908 C    1 RES 0.0000
   612 C612      21.090969    16.715408    29.886908 C    1 RES 0.0000
   613 C613      18.423531    -3.543908     3.543908 C    1 RES 0.0000
   614 C614      18.423531    -3.543908    29.886908 C    1 RES 0.0000
   615 C615      18.423531    22.799092     3.543908 C    1 RES 0.0000
   616 C616      18.423531    22.799092    29.886908 C    1 RES 0.0000
   617 C617      -5.252031     9.627592    -3.543908 C    1 RES 0.0000
   618 C618      -5.252031     9.627592    22.799092 C    1 RES 0.0000
   619 C619      21.090969     9.627592    -3.543908 C    1 RES 0.0000
   620 C620      21.090969     9.627592    22.799092 C    1 RES 0.0000
   621 C621      18.423531     3.543908    -3.543908 C    1 RES 0.0000
   622 C622      18.423531     3.543908    22.799092 C    1 RES 0.0000
   623 C623      18.423531    29.886908    -3.543908 C    1 RES 0.0000
   624 C624      18.423531    29.886908    22.799092 C    1 RES 0.0000
   625 C625      -5.252031     9.627592     3.543908 C    1 RES 0.0000
   626 C626      -5.252031     9.627592    29.886908 C    1 RES 0.0000
   627 C627      21.090969     9.627592     3.543908 C    1 RES 0.0000
   628 C628      21.090969     9.627592    29.886908 C    1 RES 0.0000
   629 C629      18.423531    -3.543908    -3.543908 C    1 RES 0.0000
   630 C630      18.423531    -3.543908    22.799092 C    1 RES 0.0000
   631 C631      18.423531    22.799092    -3.543908 C    1 RES 0.0000
   632 C632      18.423531    22.799092    22.799092 C    1 RES 0.0000
   633 C633      -5.252031    16.715408    -3.543908 C    1 RES 0.0000
   634 C634      -5.252031    16.715408    22.799092 C    1 RES 0.0000
   635 C635      21.090969    16.715408    -3.543908 C    1 RES 0.0000
   636 C636      21.090969    16.715408    22.799092 C    1 RES 0.0000
   637 C637      18.423531     3.543908     3.543908 C    1 RES 0.0000
   638 C638      18.423531     3.543908    29.886908 C    1 RES 0.0000
   639 C639      18.423531    29.886908     3.543908 C    1 RES 0.0000
   640 C640      18.423531    29.886908    29.886908 C    1 RES 0.0000
   641 C641      16.715408     5.252031     3.543908 C    1 RES 0.0000
   642 C642      16.715408     5.252031    29.886908 C    1 RES 0.0000
   643 C643      16.715408    31.595031     3.543908 C    1 RES 0.0000
   644 C644      16.715408    31.595031    29.886908 C    1 RES 0.0000
   645 C645      -3.543908     7.919469     3.543908 C    1 RES 0.0000
   646 C646      -3.543908     7.919469    29.886908 C    1 RES 0.0000
   647 C647      22.799092     7.919469     3.543908 C    1 RES 0.0000
   648 C648      22.799092     7.919469    29.886908 C    1 RES 0.0000
   649 C649      -3.543908    18.423531    -3.543908 C    1 RES 0.0000
   650 C650      -3.543908    18.423531    22.799092 C    1 RES 0.0000
   651 C651      22.799092    18.423531    -3.543908 C    1 RES 0.0000
   652 C652      22.799092    18.423531    22.799092 C    1 RES 0.0000
   653 C653      16.715408    -5.252031    -3.543908 C    1 RES 0.0000
   654 C654      16.715408    -5.252031    22.799092 C    1 RES 0.0000
   655 C655      16.715408    21.090969    -3.543908 C    1 RES 0.0000
   656 C656      16.715408    21.090969    22.799092 C    1 RES 0.0000
   657 C657      16.715408    -3.543908    -5.252031 C    1 RES 0.0000
   658 C658      16.715408    -3.543908    21.090969 C    1 RES 0.0000
   659 C659      16.715408    22.799092    -5.252031 C    1 RES 0.0000
   660 C660      16.715408    22.799092    21.090969 C    1 RES 0.0000
   661 C661      16.715408     3.543908     5.252031 C    1 RES 0.0000
   662 C662      16.715408     3.543908    31.595031 C    1 RES 0.0000
   663 C663      16.715408    29.886908     5.252031 C    1 RES 0.0000
   664 C664      16.715408    29.886908    31.595031 C    1 RES 0.0000
   665 C665      -3.543908    16.715408    -5.252031 C    1 RES 0.0000
   666 C666      -3.543908    16.715408    21.090969 C    1 RES 0.0000
   667 C667      22.799092    16.715408    -5.252031 C    1 RES 0.0000
   668 C668      22.799092    16.715408    21.090969 C    1 RES 0.0000
   669 C669      -3.543908     9.627592     5.252031 C    1 RES 0.0000
   670 C670      -3.543908     9.627592    31.595031 C    1 RES 0.0000
   671 C671      22.799092     9.627592     5.252031 C    1 RES 0.0000
   672 C672      22.799092     9.627592    31.595031 C    1 RES 0.0000
   673 C673      18.522283    14.985024     7.820717 C    1 RES 0.0000
   674 C674      -5.350783     1.813524    18.522283 C    1 RES 0.0000
   675 C675      -5.350783    28.156524    18.522283 C    1 RES 0.0000
   676 C676      20.992217     1.813524    18.522283 C    1 RES 0.0000
   677 C677      20.992217    28.156524    18.522283 C    1 RES 0.0000
   678 C678      -5.350783    -1.813524     7.820717 C    1 RES 0.0000
   679 C679      -5.350783    24.529476     7.820717 C    1 RES 0.0000
   680 C680      20.992217    -1.813524     7.820717 C    1 RES 0.0000
   681 C681      20.992217    24.529476     7.820717 C    1 RES 0.0000
   682 C682      18.522283    11.357976    18.522283 C    1 RES 0.0000
   683 C683      14.985024     7.820717    18.522283 C    1 RES 0.0000
   684 C684      14.985024    18.522283     7.820717 C    1 RES 0.0000
   685 C685      -1.813524    -5.350783     7.820717 C    1 RES 0.0000
   686 C686      -1.813524    20.992217     7.820717 C    1 RES 0.0000
   687 C687      24.529476    -5.350783     7.820717 C    1 RES 0.0000
   688 C688      24.529476    20.992217     7.820717 C    1 RES 0.0000
   689 C689      -1.813524     5.350783    18.522283 C    1 RES 0.0000
   690 C690      -1.813524    31.693783    18.522283 C    1 RES 0.0000
   691 C691      24.529476     5.350783    18.522283 C    1 RES 0.0000
   692 C692      24.529476    31.693783    18.522283 C    1 RES 0.0000
   693 C693      -5.350783     5.350783    14.985024 C    1 RES 0.0000
   694 C694      -5.350783    31.693783    14.985024 C    1 RES 0.0000
   695 C695      20.992217     5.350783    14.985024 C    1 RES 0.0000
   696 C696      20.992217    31.693783    14.985024 C    1 RES 0.0000
   697 C697      18.522283     7.820717    14.985024 C    1 RES 0.0000
   698 C698      -5.350783    -5.350783    11.357976 C    1 RES 0.0000
   699 C699      -5.350783    20.992217    11.357976 C    1 RES 0.0000
   700 C700      20.992217    -5.350783    11.357976 C    1 RES 0.0000
   701 C701      20.992217    20.992217    11.357976 C    1 RES 0.0000
   702 C702      18.522283    18.522283    11.357976 C    1 RES 0.0000
   703 C703      -5.350783    -1.813524    18.522283 C    1 RES 0.0000
   704 C704      -5.350783    24.529476    18.522283 C    1 RES 0.0000
   705 C705      20.992217    -1.813524    18.522283 C    1 RES 0.0000
   706 C706      20.992217    24.529476    18.522283 C    1 RES 0.0000
   707 C707      18.522283    11.357976     7.820717 C    1 RES 0.0000
   708 C708      -5.350783     1.813524     7.820717 C    1 RES 0.0000
   709 C709      -5.350783    28.156524     7.820717 C    1 RES 0.0000
   710 C710      20.992217     1.813524     7.820717 C    1 RES 0.0000
   711 C711      20.992217    28.156524     7.820717 C    1 RES 0.0000
   712 C712      18.522283    14.985024    18.522283 C    1 RES 0.0000
   713 C713      18.522283    18.522283    14.985024 C    1 RES 0.0000
   714 C714      -5.350783    -5.350783    14.985024 C    1 RES 0.0000
   715 C715      -5.350783    20.992217    14.985024 C    1 RES 0.0000
   716 C716      20.992217    -5.350783    14.985024 C    1 RES 0.0000
   717 C717      20.992217    20.992217    14.985024 C    1 RES 0.0000
   718 C718      -5.350783     5.350783    11.357976 C    1 RES 0.0000
   719 C719      -5.350783    31.693783    11.357976 C    1 RES 0.0000
   720 C720      20.992217     5.350783    11.357976 C    1 RES 0.0000
   721 C721      20.992217    31.693783    11.357976 C    1 RES 0.0000
   722 C722      18.522283     7.820717    11.357976 C    1 RES 0.0000
   723 C723      14.985024     7.820717     7.820717 C    1 RES 0.0000
   724 C724      14.985024    18.522283    18.522283 C    1 RES 0.0000
   725 C725      -1.813524     5.350783     7.820717 C    1 RES 0.0000
   726 C726      -1.813524    31.693783     7.820717 C    1 RES 0.0000
   727 C727      24.529476     5.350783     7.820717 C    1 RES 0.0000
   728 C728      24.529476    31.693783     7.820717 C    1 RES 0.0000
   729 C729      -1.813524    -5.350783    18.522283 C    1 RES 0.0000
   730 C730      -1.813524    20.992217    18.522283 C    1 RES 0.0000
   731 C731      24.529476    -5.350783    18.522283 C    1 RES 0.0000
   732 C732      24.529476    20.992217    18.522283 C    1 RES 0.0000
   733 C733      17.853451    16.154695     8.489549 C    1 RES 0.0000
   734 C734      -4.681951     2.983195    17.853451 C    1 RES 0.0000
   735 C735      -4.681951    29.326195    17.853451 C    1 RES 0.0000
   736 C736      21.661049     2.983195    17.853451 C    1 RES 0.0000
   737 C737      21.661049    29.326195    17.853451 C    1 RES 0.0000
   738 C738      -4.681951    -2.983195     8.489549 C    1 RES 0.0000
   739 C739      -4.681951    23.359805     8.489549 C    1 RES 0.0000
   740 C740      21.661049    -2.983195     8.489549 C    1 RES 0.0000
   741 C741      21.661049    23.359805     8.489549 C    1 RES 0.0000
   742 C742      17.853451    10.188305    17.853451 C    1 RES 0.0000
   743 C743      16.154695     8.489549    17.853451 C    1 RES 0.0000
   744 C744      16.154695    17.853451     8.489549 C    1 RES 0.0000
   745 C745      -2.983195    -4.681951     8.489549 C    1 RES 0.0000
   746 C746      -2.983195    21.661049     8.489549 C    1 RES 0.0000
   747 C747      23.359805    -4.681951     8.489549 C    1 RES 0.0000
   748 C748      23.359805    21.661049     8.489549 C    1 RES 0.0000
   749 C749      -2.983195     4.681951    17.853451 C    1 RES 0.0000
   750 C750      -2.983195    31.024951    17.853451 C    1 RES 0.0000
   751 C751      23.359805     4.681951    17.853451 C    1 RES 0.0000
   752 C752      23.359805    31.024951    17.853451 C    1 RES 0.0000
   753 C753      -4.681951     4.681951    16.154695 C    1 RES 0.0000
   754 C754      -4.681951    31.024951    16.154695 C    1 RES 0.0000
   755 C755      21.661049     4.681951    16.154695 C    1 RES 0.0000
   756 C756      21.661049    31.024951    16.154695 C    1 RES 0.0000
   757 C757      17.853451     8.489549    16.154695 C    1 RES 0.0000
   758 C758      -4.681951    -4.681951    10.188305 C    1 RES 0.0000
   759 C759      -4.681951    21.661049    10.188305 C    1 RES 0.0000
   760 C760      21.661049    -4.681951    10.188305 C    1 RES 0.0000
   761 C761      21.661049    21.661049    10.188305 C    1 RES 0.0000
   762 C762      17.853451    17.853451    10.188305 C    1 RES 0.0000
   763 C763      -4.681951    -2.983195    17.853451 C    1 RES 0.0000
   764 C764      -4.681951    23.359805    17.853451 C    1 RES 0.0000
   765 C765      21.661049    -2.983195    17.853451 C    1 RES 0.0000
   766 C766      21.661049    23.359805    17.853451 C    1 RES 0.0000
   767 C767      17.853451    10.188305     8.489549 C    1 RES 0.0000
   768 C768      -4.681951     2.983195     8.489549 C    1 RES 0.0000
   769 C769      -4.681951    29.326195     8.489549 C    1 RES 0.0000
   770 C770      21.661049     2.983195     8.489549 C    1 RES 0.0000
   771 C771      21.661049    29.326195     8.489549 C    1 RES 0.0000
   772 C772      17.853451    16.154695    17.853451 C    1 RES 0.0000
   773 C773      17.853451    17.853451    16.154695 C    1 RES 0.0000
   774 C774      -4.681951    -4.681951    16.154695 C    1 RES 0.0000
   775 C775      -4.681951    21.661049    16.154695 C    1 RES 0.0000
   776 C776      21.661049    -4.681951    16.154695 C    1 RES 0.0000
   777 C777      21.661049    21.661049    16.154695 C    1 RES 0.0000
   778 C778      -4.681951     4.681951    10.188305 C    1 RES 0.0000
   779 C779      -4.681951    31.024951    10.188305 C    1 RES 0.0000
   780 C780      21.661049     4.681951    10.188305 C    1 RES 0.0000
   781 C781      21.661049    31.024951    10.188305 C    1 RES 0.0000
   782 C782      17.853451     8.489549    10.188305 C    1 RES 0.0000
   783 C783      16.154695     8.489549     8.489549 C    1 RES 0.0000
   784 C784      16.154695    17.853451    17.853451 C    1 RES 0.0000
   785 C785      -2.983195     4.681951     8.489549 C    1 RES 0.0000
   786 C786      -2.983195    31.024951     8.489549 C    1 RES 0.0000
   787 C787      23.359805     4.681951     8.489549 C    1 RES 0.0000
   788 C788      23.359805    31.024951     8.489549 C    1 RES 0.0000
   789 C789      -2.983195    -4.681951    17.853451 C    1 RES 0.0000
   790 C790      -2.983195    21.661049    17.853451 C    1 RES 0.0000
   791 C791      23.359805    -4.681951    17.853451 C    1 RES 0.0000
   792 C792      23.359805    21.661049    17.853451 C    1 RES 0.0000
   793 C793      16.715408    16.715408     7.919469 C    1 RES 0.0000
   794 C794      -3.543908     3.543908    18.423531 C    1 RES 0.0000
   795 C795      -3.543908    29.886908    18.423531 C    1 RES 0.0000
   796 C796      22.799092     3.543908    18.423531 C    1 RES 0.0000
   797 C797      22.799092    29.886908    18.423531 C    1 RES 0.0000
   798 C798      -3.543908    -3.543908     7.919469 C    1 RES 0.0000
   799 C799      -3.543908    22.799092     7.919469 C    1 RES 0.0000
   800 C800      22.799092    -3.543908     7.919469 C    1 RES 0.0000
   801 C801      22.799092    22.799092     7.919469 C    1 RES 0.0000
   802 C802      16.715408     9.627592    18.423531 C    1 RES 0.0000
   803 C803      16.715408     7.919469    16.715408 C    1 RES 0.0000
   804 C804      16.715408    18.423531     9.627592 C    1 RES 0.0000
   805 C805      -3.543908    -5.252031     9.627592 C    1 RES 0.0000
   806 C806      -3.543908    21.090969     9.627592 C    1 RES 0.0000
   807 C807      22.799092    -5.252031     9.627592 C    1 RES 0.0000
   808 C808      22.799092    21.090969     9.627592 C    1 RES 0.0000
   809 C809      -3.543908     5.252031    16.715408 C    1 RES 0.0000
   810 C810      -3.543908    31.595031    16.715408 C    1 RES 0.0000
   811 C811      22.799092     5.252031    16.715408 C    1 RES 0.0000
   812 C812      22.799092    31.595031    16.715408 C    1 RES 0.0000
   813 C813      -5.252031     3.543908    16.715408 C    1 RES 0.0000
   814 C814      -5.252031    29.886908    16.715408 C    1 RES 0.0000
   815 C815      21.090969     3.543908    16.715408 C    1 RES 0.0000
   816 C816      21.090969    29.886908    16.715408 C    1 RES 0.0000
   817 C817      18.423531     9.627592    16.715408 C    1 RES 0.0000
   818 C818      -5.252031    -3.543908     9.627592 C    1 RES 0.0000
   819 C819      -5.252031    22.799092     9.627592 C    1 RES 0.0000
   820 C820      21.090969    -3.543908     9.627592 C    1 RES 0.0000
   821 C821      21.090969    22.799092     9.627592 C    1 RES 0.0000
   822 C822      18.423531    16.715408     9.627592 C    1 RES 0.0000
   823 C823      -5.252031    -3.543908    16.715408 C    1 RES 0.0000
   824 C824      -5.252031    22.799092    16.715408 C    1 RES 0.0000
   825 C825      21.090969    -3.543908    16.715408 C    1 RES 0.0000
   826 C826      21.090969    22.799092    16.715408 C    1 RES 0.0000
   827 C827      18.423531     9.627592     9.627592 C    1 RES 0.0000
   828 C828      -5.252031     3.543908     9.627592 C    1 RES 0.0000
   829 C829      -5.252031    29.886908     9.627592 C    1 RES 0.0000
   830 C830      21.090969     3.543908     9.627592 C    1 RES 0.0000
   831 C831      21.090969    29.886908     9.627592 C    1 RES 0.0000
   832 C832      18.423531    16.715408    16.715408 C    1 RES 0.0000
   833 C833      16.715408    18.423531    16.715408 C    1 RES 0.0000
   834 C834      -3.543908    -5.252031    16.715408 C    1 RES 0.0000
   835 C835      -3.543908    21.090969    16.715408 C    1 RES 0.0000
   836 C836      22.799092    -5.252031    16.715408 C    1 RES 0.0000
   837 C837      22.799092    21.090969    16.715408 C    1 RES 0.0000
   838 C838      -3.543908     5.252031     9.627592 C    1 RES 0.0000
   839 C839      -3.543908    31.595031     9.627592 C    1 RES 0.0000
   840 C840      22.799092     5.252031     9.627592 C    1 RES 0.0000
   841 C841      22.799092    31.595031     9.627592 C    1 RES 0.0000
   842 C842      16.715408     7.919469     9.627592 C    1 RES 0.0000
   843 C843      16.715408     9.627592     7.919469 C    1 RES 0.0000
   844 C844      16.715408    16.715408    18.423531 C    1 RES 0.0000
   845 C845      -3.543908     3.543908     7.919469 C    1 RES 0.0000
   846 C846      -3.543908    29.886908     7.919469 C    1 RES 0.0000
   847 C847      22.799092     3.543908     7.919469 C    1 RES 0.0000
   848 C848      22.799092    29.886908     7.919469 C    1 RES 0.0000
   849 C849      -3.543908    -3.543908    18.423531 C    1 RES 0.0000
   850 C850      -3.543908    22.799092    18.423531 C    1 RES 0.0000
   851 C851      22.799092    -3.543908    18.423531 C    1 RES 0.0000
   852 C852      22.799092    22.799092    18.423531 C    1 RES 0.0000
   853 C853       5.350783     1.813524     7.820717 C    1 RES 0.0000
   854 C854       5.350783    28.156524     7.820717 C    1 RES 0.0000
   855 C855      31.693783     1.813524     7.820717 C    1 RES 0.0000
   856 C856      31.693783    28.156524     7.820717 C    1 RES 0.0000
   857 C857       7.820717    14.985024    18.522283 C    1 RES 0.0000
   858 C858       7.820717    11.357976     7.820717 C    1 RES 0.0000
   859 C859       5.350783    -1.813524    18.522283 C    1 RES 0.0000
   860 C860       5.350783    24.529476    18.522283 C    1 RES 0.0000
   861 C861      31.693783    -1.813524    18.522283 C    1 RES 0.0000
   862 C862      31.693783    24.529476    18.522283 C    1 RES 0.0000
   863 C863       1.813524    -5.350783    18.522283 C    1 RES 0.0000
   864 C864       1.813524    20.992217    18.522283 C    1 RES 0.0000
   865 C865      28.156524    -5.350783    18.522283 C    1 RES 0.0000
   866 C866      28.156524    20.992217    18.522283 C    1 RES 0.0000
   867 C867       1.813524     5.350783     7.820717 C    1 RES 0.0000
   868 C868       1.813524    31.693783     7.820717 C    1 RES 0.0000
   869 C869      28.156524     5.350783     7.820717 C    1 RES 0.0000
   870 C870      28.156524    31.693783     7.820717 C    1 RES 0.0000
   871 C871      11.357976     7.820717     7.820717 C    1 RES 0.0000
   872 C872      11.357976    18.522283    18.522283 C    1 RES 0.0000
   873 C873       7.820717    18.522283    14.985024 C    1 RES 0.0000
   874 C874       5.350783    -5.350783    14.985024 C    1 RES 0.0000
   875 C875       5.350783    20.992217    14.985024 C    1 RES 0.0000
   876 C876      31.693783    -5.350783    14.985024 C    1 RES 0.0000
   877 C877      31.693783    20.992217    14.985024 C    1 RES 0.0000
   878 C878       7.820717     7.820717    11.357976 C    1 RES 0.0000
   879 C879       5.350783     5.350783    11.357976 C    1 RES 0.0000
   880 C880       5.350783    31.693783    11.357976 C    1 RES 0.0000
   881 C881      31.693783     5.350783    11.357976 C    1 RES 0.0000
   882 C882      31.693783    31.693783    11.357976 C    1 RES 0.0000
   883 C883       7.820717    11.357976    18.522283 C    1 RES 0.0000
   884 C884       5.350783    -1.813524     7.820717 C    1 RES 0.0000
   885 C885       5.350783    24.529476     7.820717 C    1 RES 0.0000
   886 C886      31.693783    -1.813524     7.820717 C    1 RES 0.0000
   887 C887      31.693783    24.529476     7.820717 C    1 RES 0.0000
   888 C888       7.820717    14.985024     7.820717 C    1 RES 0.0000
   889 C889       5.350783     1.813524    18.522283 C    1 RES 0.0000
   890 C890       5.350783    28.156524    18.522283 C    1 RES 0.0000
   891 C891      31.693783     1.813524    18.522283 C    1 RES 0.0000
   892 C892      31.693783    28.156524    18.522283 C    1 RES 0.0000
   893 C893       5.350783     5.350783    14.985024 C    1 RES 0.0000
   894 C894       5.350783    31.693783    14.985024 C    1 RES 0.0000
   895 C895      31.693783     5.350783    14.985024 C    1 RES 0.0000
   896 C896      31.693783    31.693783    14.985024 C    1 RES 0.0000
   897 C897       7.820717     7.820717    14.985024 C    1 RES 0.0000
   898 C898       7.820717    18.522283    11.357976 C    1 RES 0.0000
   899 C899       5.350783    -5.350783    11.357976 C    1 RES 0.0000
   900 C900       5.350783    20.992217    11.357976 C    1 RES 0.0000
   901 C901      31.693783    -5.350783    11.357976 C    1 RES 0.0000
   902 C902      31.693783    20.992217    11.357976 C    1 RES 0.0000
   903 C903       1.813524    -5.350783     7.820717 C    1 RES 0.0000
   904 C904       1.813524    20.992217     7.820717 C    1 RES 0.0000
   905 C905      28.156524    -5.350783     7.820717 C    1 RES 0.0000
   906 C906      28.156524    20.992217     7.820717 C    1 RES 0.0000
   907 C907       1.813524     5.350783    18.522283 C    1 RES 0.0000
   908 C908       1.813524    31.693783    18.522283 C    1 RES 0.0000
   909 C909      28.156524     5.350783    18.522283 C    1 RES 0.0000
   910 C910      28.156524    31.693783    18.522283 C    1 RES 0.0000
   911 C911      11.357976    18.522283     7.820717 C    1 RES 0.0000
   912 C912      11.357976     7.820717    18.522283 C    1 RES 0.0000
   913 C913       4.681951     2.983195     8.489549 C    1 RES 0.0000
   914 C914       4.681951    29.326195     8.489549 C    1 RES 0.0000
   915 C915      31.024951     2.983195     8.489549 C    1 RES 0.0000
   916 C916      31.024951    29.326195     8.489549 C    1 RES 0.0000
   917 C917       8.489549    16.154695    17.853451 C    1 RES 0.0000
   918 C918       8.489549    10.188305     8.489549 C    1 RES 0.0000
   919 C919       4.681951    -2.983195    17.853451 C    1 RES 0.0000
   920 C920       4.681951    23.359805    17.853451 C    1 RES 0.0000
   921 C921      31.024951    -2.983195    17.853451 C    1 RES 0.0000
   922 C922      31.024951    23.359805    17.853451 C    1 RES 0.0000
   923 C923       2.983195    -4.681951    17.853451 C    1 RES 0.0000
   924 C924       2.983195    21.661049    17.853451 C    1 RES 0.0000
   925 C925      29.326195    -4.681951    17.853451 C    1 RES 0.0000
   926 C926      29.326195    21.661049    17.853451 C    1 RES 0.0000
   927 C927       2.983195     4.681951     8.489549 C    1 RES 0.0000
   928 C928       2.983195    31.024951     8.489549 C    1 RES 0.0000
   929 C929      29.326195     4.681951     8.489549 C    1 RES 0.0000
   930 C930      29.326195    31.024951     8.489549 C    1 RES 0.0000
   931 C931      10.188305     8.489549     8.489549 C    1 RES 0.0000
   932 C932      10.188305    17.853451    17.853451 C    1 RES 0.0000
   933 C933       8.489549    17.853451    16.154695 C    1 RES 0.0000
   934 C934       4.681951    -4.681951    16.154695 C    1 RES 0.0000
   935 C935       4.681951    21.661049    16.154695 C    1 RES 0.0000
   936 C936      31.024951    -4.681951    16.154695 C    1 RES 0.0000
   937 C937      31.024951    21.661049    16.154695 C    1 RES 0.0000
   938 C938       8.489549     8.489549    10.188305 C    1 RES 0.0000
   939 C939       4.681951     4.681951    10.188305 C    1 RES 0.0000
   940 C940       4.681951    31.024951    10.188305 C    1 RES 0.0000
   941 C941      31.024951     4.681951    10.188305 C    1 RES 0.0000
   942 C942      31.024951    31.024951    10.188305 C    1 RES 0.0000
   943 C943       8.489549    10.188305    17.853451 C    1 RES 0.0000
   944 C944       4.681951    -2.983195     8.489549 C    1 RES 0.0000
   945 C945       4.681951    23.359805     8.489549 C    1 RES 0.0000
   946 C946      31.024951    -2.983195     8.489549 C    1 RES 0.0000
   947 C947      31.024951    23.359805     8.489549 C    1 RES 0.0000
   948 C948       8.489549    16.154695     8.489549 C    1 RES 0.0000
   949 C949       4.681951     2.983195    17.853451 C    1 RES 0.0000
   950 C950       4.681951    29.326195    17.853451 C    1 RES 0.0000
   951 C951      31.024951     2.983195    17.853451 C    1 RES 0.0000
   952 C952      31.024951    29.326195    17.853451 C    1 RES 0.0000
   953 C953       4.681951     4.681951    16.154695 C    1 RES 0.0000
   954 C954       4.681951    31.024951    16.154695 C    1 RES 0.0000
   955 C955      31.024951     4.681951    16.154695 C    1 RES 0.0000
   956 C956      31.024951    31.024951    16.154695 C    1 RES 0.0000
   957 C957       8.489549     8.489549    16.154695 C    1 RES 0.0000
   958 C958       8.489549    17.853451    10.188305 C    1 RES 0.0000
   959 C959       4.681951    -4.681951    10.188305 C    1 RES 0.0000
   960 C960       4.681951    21.661049    10.188305 C    1 RES 0.0000
   961 C961      31.024951    -4.681951    10.188305 C    1 RES 0.0000
   962 C962      31.024951    21.661049    10.188305 C    1 RES 0.0000
   963 C963       2.983195    -4.681951     8.489549 C    1 RES 0.0000
   964 C964       2.983195    21.661049     8.489549 C    1 RES 0.0000
   965 C965      29.326195    -4.681951     8.489549 C    1 RES 0.0000
   966 C966      29.326195    21.661049     8.489549 C    1 RES 0.0000
   967 C967       2.983195     4.681951    17.853451 C    1 RES 0.0000
   968 C968       2.983195    31.024951    17.853451 C    1 RES 0.0000
   969 C969      29.326195     4.681951    17.853451 C    1 RES 0.0000
   970 C970      29.326195    31.024951    17.853451 C    1 RES 0.0000
   971 C971      10.188305    17.853451     8.489549 C    1 RES 0.0000
   972 C972      10.188305     8.489549    17.853451 C    1 RES 0.0000
   973 C973       3.543908     3.543908     7.919469 C    1 RES 0.0000
   974 C974       3.543908    29.886908     7.919469 C    1 RES 0.0000
   975 C975      29.886908     3.543908     7.919469 C    1 RES 0.0000
   976 C976      29.886908    29.886908     7.919469 C    1 RES 0.0000
   977 C977       9.627592    16.715408    18.423531 C    1 RES 0.0000
   978 C978       9.627592     9.627592     7.919469 C    1 RES 0.0000
   979 C979       3.543908    -3.543908    18.423531 C    1 RES 0.0000
   980 C980       3.543908    22.799092    18.423531 C    1 RES 0.0000
   981 C981      29.886908    -3.543908    18.423531 C    1 RES 0.0000
   982 C982      29.886908    22.799092    18.423531 C    1 RES 0.0000
   983 C983       3.543908    -5.252031    16.715408 C    1 RES 0.0000
   984 C984       3.543908    21.090969    16.715408 C    1 RES 0.0000
   985 C985      29.886908    -5.252031    16.715408 C    1 RES 0.0000
   986 C986      29.886908    21.090969    16.715408 C    1 RES 0.0000
   987 C987       3.543908     5.252031     9.627592 C    1 RES 0.0000
   988 C988       3.543908    31.595031     9.627592 C    1 RES 0.0000
   989 C989      29.886908     5.252031     9.627592 C    1 RES 0.0000
   990 C990      29.886908    31.595031     9.627592 C    1 RES 0.0000
   991 C991       9.627592     7.919469     9.627592 C    1 RES 0.0000
   992 C992       9.627592    18.423531    16.715408 C    1 RES 0.0000
   993 C993       7.919469    16.715408    16.715408 C    1 RES 0.0000
   994 C994       5.252031    -3.543908    16.715408 C    1 RES 0.0000
   995 C995       5.252031    22.799092    16.715408 C    1 RES 0.0000
   996 C996      31.595031    -3.543908    16.715408 C    1 RES 0.0000
   997 C997      31.595031    22.799092    16.715408 C    1 RES 0.0000
   998 C998       7.919469     9.627592     9.627592 C    1 RES 0.0000
   999 C999       5.252031     3.543908     9.627592 C    1 RES 0.0000
  1000 C1000      5.252031    29.886908     9.627592 C    1 RES 0.0000
  1001 C1001     31.595031     3.543908     9.627592 C    1 RES 0.0000
  1002 C1002     31.595031    29.886908     9.627592 C    1 RES 0.0000
  1003 C1003      7.919469     9.627592    16.715408 C    1 RES 0.0000
  1004 C1004      5.252031    -3.543908     9.627592 C    1 RES 0.0000
  1005 C1005      5.252031    22.799092     9.627592 C    1 RES 0.0000
  1006 C1006     31.595031    -3.543908     9.627592 C    1 RES 0.0000
  1007 C1007     31.595031    22.799092     9.627592 C    1 RES 0.0000
  1008 C1008      7.919469    16.715408     9.627592 C    1 RES 0.0000
  1009 C1009      5.252031     3.543908    16.715408 C    1 RES 0.0000
  1010 C1010      5.252031    29.886908    16.715408 C    1 RES 0.0000
  1011 C1011     31.595031     3.543908    16.715408 C    1 RES 0.0000
  1012 C1012     31.595031    29.886908    16.715408 C    1 RES 0.0000
  1013 C1013      3.543908     5.252031    16.715408 C    1 RES 0.0000
  1014 C1014      3.543908    31.595031    16.715408 C    1 RES 0.0000
  1015 C1015     29.886908     5.252031    16.715408 C    1 RES 0.0000
  1016 C1016     29.886908    31.595031    16.715408 C    1 RES 0.0000
  1017 C1017      9.627592     7.919469    16.715408 C    1 RES 0.0000
  1018 C1018      9.627592    18.423531     9.627592 C    1 RES 0.0000
  1019 C1019      3.543908    -5.252031     9.627592 C    1 RES 0.0000
  1020 C1020      3.543908    21.090969     9.627592 C    1 RES 0.0000
  1021 C1021     29.886908    -5.252031     9.627592 C    1 RES 0.0000
  1022 C1022     29.886908    21.090969     9.627592 C    1 RES 0.0000
  1023 C1023      3.543908    -3.543908     7.919469 C    1 RES 0.0000
  1024 C1024      3.543908    22.799092     7.919469 C    1 RES 0.0000
  1025 C1025     29.886908    -3.543908     7.919469 C    1 RES 0.0000
  1026 C1026     29.886908    22.799092     7.919469 C    1 RES 0.0000
  1027 C1027      3.543908     3.543908    18.423531 C    1 RES 0.0000
  1028 C1028      3.543908    29.886908    18.423531 C    1 RES 0.0000
  1029 C1029     29.886908     3.543908    18.423531 C    1 RES 0.0000
  1030 C1030     29.886908    29.886908    18.423531 C    1 RES 0.0000
  1031 C1031      9.627592    16.715408     7.919469 C    1 RES 0.0000
  1032 C1032      9.627592     9.627592    18.423531 C    1 RES 0.0000
  1033 C1033      5.350783    14.985024    -5.350783 C    1 RES 0.0000
  1034 C1034      5.350783    14.985024    20.992217 C    1 RES 0.0000
  1035 C1035     31.693783    14.985024    -5.350783 C    1 RES 0.0000
  1036 C1036     31.693783    14.985024    20.992217 C    1 RES 0.0000
  1037 C1037      7.820717     1.813524     5.350783 C    1 RES 0.0000
  1038 C1038      7.820717     1.813524    31.693783 C    1 RES 0.0000
  1039 C1039      7.820717    28.156524     5.350783 C    1 RES 0.0000
  1040 C1040      7.820717    28.156524    31.693783 C    1 RES 0.0000
  1041 C1041      7.820717    -1.813524    -5.350783 C    1 RES 0.0000
  1042 C1042      7.820717    -1.813524    20.992217 C    1 RES 0.0000
  1043 C1043      7.820717    24.529476    -5.350783 C    1 RES 0.0000
  1044 C1044      7.820717    24.529476    20.992217 C    1 RES 0.0000
  1045 C1045      5.350783    11.357976     5.350783 C    1 RES 0.0000
  1046 C1046      5.350783    11.357976    31.693783 C    1 RES 0.0000
  1047 C1047     31.693783    11.357976     5.350783 C    1 RES 0.0000
  1048 C1048     31.693783    11.357976    31.693783 C    1 RES 0.0000
  1049 C1049      1.813524     7.820717     5.350783 C    1 RES 0.0000
  1050 C1050      1.813524     7.820717    31.693783 C    1 RES 0.0000
  1051 C1051     28.156524     7.820717     5.350783 C    1 RES 0.0000
  1052 C1052     28.156524     7.820717    31.693783 C    1 RES 0.0000
  1053 C1053      1.813524    18.522283    -5.350783 C    1 RES 0.0000
  1054 C1054      1.813524    18.522283    20.992217 C    1 RES 0.0000
  1055 C1055     28.156524    18.522283    -5.350783 C    1 RES 0.0000
  1056 C1056     28.156524    18.522283    20.992217 C    1 RES 0.0000
  1057 C1057     11.357976    -5.350783    -5.350783 C    1 RES 0.0000
  1058 C1058     11.357976    -5.350783    20.992217 C    1 RES 0.0000
  1059 C1059     11.357976    20.992217    -5.350783 C    1 RES 0.0000
  1060 C1060     11.357976    20.992217    20.992217 C    1 RES 0.0000
  1061 C1061     11.357976     5.350783     5.350783 C    1 RES 0.0000
  1062 C1062     11.357976     5.350783    31.693783 C    1 RES 0.0000
  1063 C1063     11.357976    31.693783     5.350783 C    1 RES 0.0000
  1064 C1064     11.357976    31.693783    31.693783 C    1 RES 0.0000
  1065 C1065      7.820717     5.350783     1.813524 C    1 RES 0.0000
  1066 C1066      7.820717     5.350783    28.156524 C    1 RES 0.0000
  1067 C1067      7.820717    31.693783     1.813524 C    1 RES 0.0000
  1068 C1068      7.820717    31.693783    28.156524 C    1 RES 0.0000
  1069 C1069      5.350783     7.820717     1.813524 C    1 RES 0.0000
  1070 C1070      5.350783     7.820717    28.156524 C    1 RES 0.0000
  1071 C1071     31.693783     7.820717     1.813524 C    1 RES 0.0000
  1072 C1072     31.693783     7.820717    28.156524 C    1 RES 0.0000
  1073 C1073      7.820717    -5.350783    -1.813524 C    1 RES 0.0000
  1074 C1074      7.820717    -5.350783    24.529476 C    1 RES 0.0000
  1075 C1075      7.820717    20.992217    -1.813524 C    1 RES 0.0000
  1076 C1076      7.820717    20.992217    24.529476 C    1 RES 0.0000
  1077 C1077      5.350783    18.522283    -1.813524 C    1 RES 0.0000
  1078 C1078      5.350783    18.522283    24.529476 C    1 RES 0.0000
  1079 C1079     31.693783    18.522283    -1.813524 C    1 RES 0.0000
  1080 C1080     31.693783    18.522283    24.529476 C    1 RES 0.0000
  1081 C1081      7.820717    -1.813524     5.350783 C    1 RES 0.0000
  1082 C1082      7.820717    -1.813524    31.693783 C    1 RES 0.0000
  1083 C1083      7.820717    24.529476     5.350783 C    1 RES 0.0000
  1084 C1084      7.820717    24.529476    31.693783 C    1 RES 0.0000
  1085 C1085      5.350783    11.357976    -5.350783 C    1 RES 0.0000
  1086 C1086      5.350783    11.357976    20.992217 C    1 RES 0.0000
  1087 C1087     31.693783    11.357976    -5.350783 C    1 RES 0.0000
  1088 C1088     31.693783    11.357976    20.992217 C    1 RES 0.0000
  1089 C1089      7.820717     1.813524    -5.350783 C    1 RES 0.0000
  1090 C1090      7.820717     1.813524    20.992217 C    1 RES 0.0000
  1091 C1091      7.820717    28.156524    -5.350783 C    1 RES 0.0000
  1092 C1092      7.820717    28.156524    20.992217 C    1 RES 0.0000
  1093 C1093      5.350783    14.985024     5.350783 C    1 RES 0.0000
  1094 C1094      5.350783    14.985024    31.693783 C    1 RES 0.0000
  1095 C1095     31.693783    14.985024     5.350783 C    1 RES 0.0000
  1096 C1096     31.693783    14.985024    31.693783 C    1 RES 0.0000
  1097 C1097      5.350783    18.522283     1.813524 C    1 RES 0.0000
  1098 C1098      5.350783    18.522283    28.156524 C    1 RES 0.0000
  1099 C1099     31.693783    18.522283     1.813524 C    1 RES 0.0000
  1100 C1100     31.693783    18.522283    28.156524 C    1 RES 0.0000
  1101 C1101      7.820717    -5.350783     1.813524 C    1 RES 0.0000
  1102 C1102      7.820717    -5.350783    28.156524 C    1 RES 0.0000
  1103 C1103      7.820717    20.992217     1.813524 C    1 RES 0.0000
  1104 C1104      7.820717    20.992217    28.156524 C    1 RES 0.0000
  1105 C1105      7.820717     5.350783    -1.813524 C    1 RES 0.0000
  1106 C1106      7.820717     5.350783    24.529476 C    1 RES 0.0000
  1107 C1107      7.820717    31.693783    -1.813524 C    1 RES 0.0000
  1108 C1108      7.820717    31.693783    24.529476 C    1 RES 0.0000
  1109 C1109      5.350783     7.820717    -1.813524 C    1 RES 0.0000
  1110 C1110      5.350783     7.820717    24.529476 C    1 RES 0.0000
  1111 C1111     31.693783     7.820717    -1.813524 C    1 RES 0.0000
  1112 C1112     31.693783     7.820717    24.529476 C    1 RES 0.0000
  1113 C1113      1.813524     7.820717    -5.350783 C    1 RES 0.0000
  1114 C1114      1.813524     7.820717    20.992217 C    1 RES 0.0000
  1115 C1115     28.156524     7.820717    -5.350783 C    1 RES 0.0000
  1116 C1116     28.156524     7.820717    20.992217 C    1 RES 0.0000
  1117 C1117      1.813524    18.522283     5.350783 C    1 RES 0.0000
  1118 C1118      1.813524    18.522283    31.693783 C    1 RES 0.0000
  1119 C1119     28.156524    18.522283     5.350783 C    1 RES 0.0000
  1120 C1120     28.156524    18.522283    31.693783 C    1 RES 0.0000
  1121 C1121     11.357976     5.350783    -5.350783 C    1 RES 0.0000
  1122 C1122     11.357976     5.350783    20.992217 C    1 RES 0.0000
  1123 C1123     11.357976    31.693783    -5.350783 C    1 RES 0.0000
  1124 C1124     11.357976    31.693783    20.992217 C    1 RES 0.0000
  1125 C1125     11.357976    -5.350783     5.350783 C    1 RES 0.0000
  1126 C1126     11.357976    -5.350783    31.693783 C    1 RES 0.0000
  1127 C1127     11.357976    20.992217     5.350783 C    1 RES 0.0000
  1128 C1128     11.357976    20.992217    31.693783 C    1 RES 0.0000
  1129 C1129      4.681951    16.154695    -4.681951 C    1 RES 0.0000
  1130 C1130      4.681951    16.154695    21.661049 C    1 RES 0.0000
  1131 C1131     31.024951    16.154695    -4.681951 C    1 RES 0.0000
  1132 C1132     31.024951    16.154695    21.661049 C    1 RES 0.0000
  1133 C1133      8.489549     2.983195     4.681951 C    1 RES 0.0000
  1134 C1134      8.489549     2.983195    31.024951 C    1 RES 0.0000
  1135 C1135      8.489549    29.326195     4.681951 C    1 RES 0.0000
  1136 C1136      8.489549    29.326195    31.024951 C    1 RES 0.0000
  1137 C1137      8.489549    -2.983195    -4.681951 C    1 RES 0.0000
  1138 C1138      8.489549    -2.983195    21.661049 C    1 RES 0.0000
  1139 C1139      8.489549    23.359805    -4.681951 C    1 RES 0.0000
  1140 C1140      8.489549    23.359805    21.661049 C    1 RES 0.0000
  1141 C1141      4.681951    10.188305     4.681951 C    1 RES 0.0000
  1142 C1142      4.681951    10.188305    31.024951 C    1 RES 0.0000
  1143 C1143     31.024951    10.188305     4.681951 C    1 RES 0.0000
  1144 C1144     31.024951    10.188305    31.024951 C    1 RES 0.0000
  1145 C1145      2.983195     8.489549     4.681951 C    1 RES 0.0000
  1146 C1146      2.983195     8.489549    31.024951 C    1 RES 0.0000
  1147 C1147     29.326195     8.489549     4.681951 C    1 RES 0.0000
  1148 C1148     29.326195     8.489549    31.024951 C    1 RES 0.0000
  1149 C1149      2.983195    17.853451    -4.681951 C    1 RES 0.0000
  1150 C1150      2.983195    17.853451    21.661049 C    1 RES 0.0000
  1151 C1151     29.326195    17.853451    -4.681951 C    1 RES 0.0000
  1152 C1152     29.326195    17.853451    21.661049 C    1 RES 0.0000
  1153 C1153     10.188305    -4.681951    -4.681951 C    1 RES 0.0000
  1154 C1154     10.188305    -4.681951    21.661049 C    1 RES 0.0000
  1155 C1155     10.188305    21.661049    -4.681951 C    1 RES 0.0000
  1156 C1156     10.188305    21.661049    21.661049 C    1 RES 0.0000
  1157 C1157     10.188305     4.681951     4.681951 C    1 RES 0.0000
  1158 C1158     10.188305     4.681951    31.024951 C    1 RES 0.0000
  1159 C1159     10.188305    31.024951     4.681951 C    1 RES 0.0000
  1160 C1160     10.188305    31.024951    31.024951 C    1 RES 0.0000
  1161 C1161      8.489549     4.681951     2.983195 C    1 RES 0.0000
  1162 C1162      8.489549     4.681951    29.326195 C    1 RES 0.0000
  1163 C1163      8.489549    31.024951     2.983195 C    1 RES 0.0000
  1164 C1164      8.489549    31.024951    29.326195 C    1 RES 0.0000
  1165 C1165      4.681951     8.489549     2.983195 C    1 RES 0.0000
  1166 C1166      4.681951     8.489549    29.326195 C    1 RES 0.0000
  1167 C1167     31.024951     8.489549     2.983195 C    1 RES 0.0000
  1168 C1168     31.024951     8.489549    29.326195 C    1 RES 0.0000
  1169 C1169      8.489549    -4.681951    -2.983195 C    1 RES 0.0000
  1170 C1170      8.489549    -4.681951    23.359805 C    1 RES 0.0000
  1171 C1171      8.489549    21.661049    -2.983195 C    1 RES 0.0000
  1172 C1172      8.489549    21.661049    23.359805 C    1 RES 0.0000
  1173 C1173      4.681951    17.853451    -2.983195 C    1 RES 0.0000
  1174 C1174      4.681951    17.853451    23.359805 C    1 RES 0.0000
  1175 C1175     31.024951    17.853451    -2.983195 C    1 RES 0.0000
  1176 C1176     31.024951    17.853451    23.359805 C    1 RES 0.0000
  1177 C1177      8.489549    -2.983195     4.681951 C    1 RES 0.0000
  1178 C1178      8.489549    -2.983195    31.024951 C    1 RES 0.0000
  1179 C1179      8.489549    23.359805     4.681951 C    1 RES 0.0000
  1180 C1180      8.489549    23.359805    31.024951 C    1 RES 0.0000
  1181 C1181      4.681951    10.188305    -4.681951 C    1 RES 0.0000
  1182 C1182      4.681951    10.188305    21.661049 C    1 RES 0.0000
  1183 C1183     31.024951    10.188305    -4.681951 C    1 RES 0.0000
  1184 C1184     31.024951    10.188305    21.661049 C    1 RES 0.0000
  1185 C1185      8.489549     2.983195    -4.681951 C    1 RES 0.0000
  1186 C1186      8.489549     2.983195    21.661049 C    1 RES 0.0000
  1187 C1187      8.489549    29.326195    -4.681951 C    1 RES 0.0000
  1188 C1188      8.489549    29.326195    21.661049 C    1 RES 0.0000
  1189 C1189      4.681951    16.154695     4.681951 C    1 RES 0.0000
  1190 C1190      4.681951    16.154695    31.024951 C    1 RES 0.0000
  1191 C1191     31.024951    16.154695     4.681951 C    1 RES 0.0000
  1192 C1192     31.024951    16.154695    31.024951 C    1 RES 0.0000
  1193 C1193      4.681951    17.853451     2.983195 C    1 RES 0.0000
  1194 C1194      4.681951    17.853451    29.326195 C    1 RES 0.0000
  1195 C1195     31.024951    17.853451     2.983195 C    1 RES 0.0000
  1196 C1196     31.024951    17.853451    29.326195 C    1 RES 0.0000
  1197 C1197      8.489549    -4.681951     2.983195 C    1 RES 0.0000
  1198 C1198      8.489549    -4.681951    29.326195 C    1 RES 0.0000
  1199 C1199      8.489549    21.661049     2.983195 C    1 RES 0.0000
  1200 C1200      8.489549    21.661049    29.326195 C    1 RES 0.0000
  1201 C1201      8.489549     4.681951    -2.983195 C    1 RES 0.0000
  1202 C1202      8.489549     4.681951    23.359805 C    1 RES 0.0000
  1203 C1203      8.489549    31.024951    -2.983195 C    1 RES 0.0000
  1204 C1204      8.489549    31.024951    23.359805 C    1 RES 0.0000
  1205 C1205      4.681951     8.489549    -2.983195 C    1 RES 0.0000
  1206 C1206      4.681951     8.489549    23.359805 C    1 RES 0.0000
  1207 C1207     31.024951     8.489549    -2.983195 C    1 RES 0.0000
  1208 C1208     31.024951     8.489549    23.359805 C    1 RES 0.0000
  1209 C1209      2.983195     8.489549    -4.681951 C    1 RES 0.0000
  1210 C1210      2.983195     8.489549    21.661049 C    1 RES 0.0000
  1211 C1211     29.326195     8.489549    -4.681951 C    1 RES 0.0000
  1212 C1212     29.326195     8.489549    21.661049 C    1 RES 0.0000
  1213 C1213      2.983195    17.853451     4.681951 C    1 RES 0.0000
  1214 C1214      2.983195    17.853451    31.024951 C    1 RES 0.0000
  1215 C1215     29.326195    17.853451     4.681951 C    1 RES 0.0000
  1216 C1216     29.326195    17.853451    31.024951 C    1 RES 0.0000
  1217 C1217     10.188305     4.681951    -4.681951 C    1 RES 0.0000
  1218 C1218     10.188305     4.681951    21.661049 C    1 RES 0.0000
  1219 C1219     10.188305    31.024951    -4.681951 C    1 RES 0.0000
  1220 C1220     10.188305    31.024951    21.661049 C    1 RES 0.0000
  1221 C1221     10.188305    -4.681951     4.681951 C    1 RES 0.0000
  1222 C1222     10.188305    -4.681951    31.024951 C    1 RES 0.0000
  1223 C1223     10.188305    21.661049     4.681951 C    1 RES 0.0000
  1224 C1224     10.188305    21.661049    31.024951 C    1 RES 0.0000
  1225 C1225      3.543908    16.715408    -5.252031 C    1 RES 0.0000
  1226 C1226      3.543908    16.715408    21.090969 C    1 RES 0.0000
  1227 C1227     29.886908    16.715408    -5.252031 C    1 RES 0.0000
  1228 C1228     29.886908    16.715408    21.090969 C    1 RES 0.0000
  1229 C1229      9.627592     3.543908     5.252031 C    1 RES 0.0000
  1230 C1230      9.627592     3.543908    31.595031 C    1 RES 0.0000
  1231 C1231      9.627592    29.886908     5.252031 C    1 RES 0.0000
  1232 C1232      9.627592    29.886908    31.595031 C    1 RES 0.0000
  1233 C1233      9.627592    -3.543908    -5.252031 C    1 RES 0.0000
  1234 C1234      9.627592    -3.543908    21.090969 C    1 RES 0.0000
  1235 C1235      9.627592    22.799092    -5.252031 C    1 RES 0.0000
  1236 C1236      9.627592    22.799092    21.090969 C    1 RES 0.0000
  1237 C1237      3.543908     9.627592     5.252031 C    1 RES 0.0000
  1238 C1238      3.543908     9.627592    31.595031 C    1 RES 0.0000
  1239 C1239     29.886908     9.627592     5.252031 C    1 RES 0.0000
  1240 C1240     29.886908     9.627592    31.595031 C    1 RES 0.0000
  1241 C1241      3.543908     7.919469     3.543908 C    1 RES 0.0000
  1242 C1242      3.543908     7.919469    29.886908 C    1 RES 0.0000
  1243 C1243     29.886908     7.919469     3.543908 C    1 RES 0.0000
  1244 C1244     29.886908     7.919469    29.886908 C    1 RES 0.0000
  1245 C1245      3.543908    18.423531    -3.543908 C    1 RES 0.0000
  1246 C1246      3.543908    18.423531    22.799092 C    1 RES 0.0000
  1247 C1247     29.886908    18.423531    -3.543908 C    1 RES 0.0000
  1248 C1248     29.886908    18.423531    22.799092 C    1 RES 0.0000
  1249 C1249      9.627592    -5.252031    -3.543908 C    1 RES 0.0000
  1250 C1250      9.627592    -5.252031    22.799092 C    1 RES 0.0000
  1251 C1251      9.627592    21.090969    -3.543908 C    1 RES 0.0000
  1252 C1252      9.627592    21.090969    22.799092 C    1 RES 0.0000
  1253 C1253      9.627592     5.252031     3.543908 C    1 RES 0.0000
  1254 C1254      9.627592     5.252031    29.886908 C    1 RES 0.0000
  1255 C1255      9.627592    31.595031     3.543908 C    1 RES 0.0000
  1256 C1256      9.627592    31.595031    29.886908 C    1 RES 0.0000
  1257 C1257      7.919469     3.543908     3.543908 C    1 RES 0.0000
  1258 C1258      7.919469     3.543908    29.886908 C    1 RES 0.0000
  1259 C1259      7.919469    29.886908     3.543908 C    1 RES 0.0000
  1260 C1260      7.919469    29.886908    29.886908 C    1 RES 0.0000
  1261 C1261      5.252031     9.627592     3.543908 C    1 RES 0.0000
  1262 C1262      5.252031     9.627592    29.886908 C    1 RES 0.0000
  1263 C1263     31.595031     9.627592     3.543908 C    1 RES 0.0000
  1264 C1264     31.595031     9.627592    29.886908 C    1 RES 0.0000
  1265 C1265      7.919469    -3.543908    -3.543908 C    1 RES 0.0000
  1266 C1266      7.919469    -3.543908    22.799092 C    1 RES 0.0000
  1267 C1267      7.919469    22.799092    -3.543908 C    1 RES 0.0000
  1268 C1268      7.919469    22.799092    22.799092 C    1 RES 0.0000
  1269 C1269      5.252031    16.715408    -3.543908 C    1 RES 0.0000
  1270 C1270      5.252031    16.715408    22.799092 C    1 RES 0.0000
  1271 C1271     31.595031    16.715408    -3.543908 C    1 RES 0.0000
  1272 C1272     31.595031    16.715408    22.799092 C    1 RES 0.0000
  1273 C1273      7.919469    -3.543908     3.543908 C    1 RES 0.0000
  1274 C1274      7.919469    -3.543908    29.886908 C    1 RES 0.0000
  1275 C1275      7.919469    22.799092     3.543908 C    1 RES 0.0000
  1276 C1276      7.919469    22.799092    29.886908 C    1 RES 0.0000
  1277 C1277      5.252031     9.627592    -3.543908 C    1 RES 0.0000
  1278 C1278      5.252031     9.627592    22.799092 C    1 RES 0.0000
  1279 C1279     31.595031     9.627592    -3.543908 C    1 RES 0.0000
  1280 C1280     31.595031     9.627592    22.799092 C    1 RES 0.0000
  1281 C1281      7.919469     3.543908    -3.543908 C    1 RES 0.0000
  1282 C1282      7.919469     3.543908    22.799092 C    1 RES 0.0000
  1283 C1283      7.919469    29.886908    -3.543908 C    1 RES 0.0000
  1284 C1284      7.919469    29.886908    22.799092 C    1 RES 0.0000
  1285 C1285      5.252031    16.715408     3.543908 C    1 RES 0.0000
  1286 C1286      5.252031    16.715408    29.886908 C    1 RES 0.0000
  1287 C1287     31.595031    16.715408     3.543908 C    1 RES 0.0000
  1288 C1288     31.595031    16.715408    29.886908 C    1 RES 0.0000
  1289 C1289      3.543908    18.423531     3.543908 C    1 RES 0.0000
  1290 C1290      3.543908    18.423531    29.886908 C    1 RES 0.0000
  1291 C1291     29.886908    18.423531     3.543908 C    1 RES 0.0000
  1292 C1292     29.886908    18.423531    29.886908 C    1 RES 0.0000
  1293 C1293      9.627592    -5.252031     3.543908 C    1 RES 0.0000
  1294 C1294      9.627592    -5.252031    29.886908 C    1 RES 0.0000
  1295 C1295      9.627592    21.090969     3.543908 C    1 RES 0.0000
  1296 C1296      9.627592    21.090969    29.886908 C    1 RES 0.0000
  1297 C1297      9.627592     5.252031    -3.543908 C    1 RES 0.0000
  1298 C1298      9.627592     5.252031    22.799092 C    1 RES 0.0000
  1299 C1299      9.627592    31.595031    -3.543908 C    1 RES 0.0000
  1300 C1300      9.627592    31.595031    22.799092 C    1 RES 0.0000
  1301 C1301      3.543908     7.919469    -3.543908 C    1 RES 0.0000
  1302 C1302      3.543908     7.919469    22.799092 C    1 RES 0.0000
  1303 C1303     29.886908     7.919469    -3.543908 C    1 RES 0.0000
  1304 C1304     29.886908     7.919469    22.799092 C    1 RES 0.0000
  1305 C1305      3.543908     9.627592    -5.252031 C    1 RES 0.0000
  1306 C1306      3.543908     9.627592    21.090969 C    1 RES 0.0000
  1307 C1307     29.886908     9.627592    -5.252031 C    1 RES 0.0000
  1308 C1308     29.886908     9.627592    21.090969 C    1 RES 0.0000
  1309 C1309      3.543908    16.715408     5.252031 C    1 RES 0.0000
  1310 C1310      3.543908    16.715408    31.595031 C    1 RES 0.0000
  1311 C1311     29.886908    16.715408     5.252031 C    1 RES 0.0000
  1312 C1312     29.886908    16.715408    31.595031 C    1 RES 0.0000
  1313 C1313      9.627592     3.543908    -5.252031 C    1 RES 0.0000
  1314 C1314      9.627592     3.543908    21.090969 C    1 RES 0.0000
  1315 C1315      9.627592    29.886908    -5.252031 C    1 RES 0.0000
  1316 C1316      9.627592    29.886908    21.090969 C    1 RES 0.0000
  1317 C1317      9.627592    -3.543908     5.252031 C    1 RES 0.0000
  1318 C1318      9.627592    -3.543908    31.595031 C    1 RES 0.0000
  1319 C1319      9.627592    22.799092     5.252031 C    1 RES 0.0000
  1320 C1320      9.627592    22.799092    31.595031 C    1 RES 0.0000
  1321 O1321     17.981173     1.400775    19.943399 O    1 RES 0.0000
  1322 O1322     17.981173    27.743775    19.943399 O    1 RES 0.0000
  1323 O1323     -4.809673    14.572275     6.399601 O    1 RES 0.0000
  1324 O1324     21.533327    14.572275     6.399601 O    1 RES 0.0000
  1325 O1325     -4.809673    11.770725    19.943399 O    1 RES 0.0000
  1326 O1326     21.533327    11.770725    19.943399 O    1 RES 0.0000
  1327 O1327     17.981173    -1.400775     6.399601 O    1 RES 0.0000
  1328 O1328     17.981173    24.942225     6.399601 O    1 RES 0.0000
  1329 O1329     14.572275    19.943399     4.809673 O    1 RES 0.0000
  1330 O1330     14.572275    19.943399    31.152673 O    1 RES 0.0000
  1331 O1331     14.572275     6.399601    -4.809673 O    1 RES 0.0000
  1332 O1332     14.572275     6.399601    21.533327 O    1 RES 0.0000
  1333 O1333     -1.400775     6.771899    -4.809673 O    1 RES 0.0000
  1334 O1334     -1.400775     6.771899    21.533327 O    1 RES 0.0000
  1335 O1335     24.942225     6.771899    -4.809673 O    1 RES 0.0000
  1336 O1336     24.942225     6.771899    21.533327 O    1 RES 0.0000
  1337 O1337     -1.400775    19.571101     4.809673 O    1 RES 0.0000
  1338 O1338     -1.400775    19.571101    31.152673 O    1 RES 0.0000
  1339 O1339     24.942225    19.571101     4.809673 O    1 RES 0.0000
  1340 O1340     24.942225    19.571101    31.152673 O    1 RES 0.0000
  1341 O1341     19.943399    17.981173     1.400775 O    1 RES 0.0000
  1342 O1342     19.943399    17.981173    27.743775 O    1 RES 0.0000
  1343 O1343     19.571101    -4.809673     1.400775 O    1 RES 0.0000
  1344 O1344     19.571101    -4.809673    27.743775 O    1 RES 0.0000
  1345 O1345     19.571101    21.533327     1.400775 O    1 RES 0.0000
  1346 O1346     19.571101    21.533327    27.743775 O    1 RES 0.0000
  1347 O1347     19.943399     8.361827    -1.400775 O    1 RES 0.0000
  1348 O1348     19.943399     8.361827    24.942225 O    1 RES 0.0000
  1349 O1349     19.571101     4.809673    -1.400775 O    1 RES 0.0000
  1350 O1350     19.571101     4.809673    24.942225 O    1 RES 0.0000
  1351 O1351     19.571101    31.152673    -1.400775 O    1 RES 0.0000
  1352 O1352     19.571101    31.152673    24.942225 O    1 RES 0.0000
  1353 O1353     19.943399    11.770725     4.809673 O    1 RES 0.0000
  1354 O1354     19.943399    11.770725    31.152673 O    1 RES 0.0000
  1355 O1355     19.571101    -1.400775    -4.809673 O    1 RES 0.0000
  1356 O1356     19.571101    -1.400775    21.533327 O    1 RES 0.0000
  1357 O1357     19.571101    24.942225    -4.809673 O    1 RES 0.0000
  1358 O1358     19.571101    24.942225    21.533327 O    1 RES 0.0000
  1359 O1359     19.943399    14.572275    -4.809673 O    1 RES 0.0000
  1360 O1360     19.943399    14.572275    21.533327 O    1 RES 0.0000
  1361 O1361     19.571101     1.400775     4.809673 O    1 RES 0.0000
  1362 O1362     19.571101     1.400775    31.152673 O    1 RES 0.0000
  1363 O1363     19.571101    27.743775     4.809673 O    1 RES 0.0000
  1364 O1364     19.571101    27.743775    31.152673 O    1 RES 0.0000
  1365 O1365     17.981173     6.399601     1.400775 O    1 RES 0.0000
  1366 O1366     17.981173     6.399601    27.743775 O    1 RES 0.0000
  1367 O1367     -4.809673     6.771899     1.400775 O    1 RES 0.0000
  1368 O1368     -4.809673     6.771899    27.743775 O    1 RES 0.0000
  1369 O1369     21.533327     6.771899     1.400775 O    1 RES 0.0000
  1370 O1370     21.533327     6.771899    27.743775 O    1 RES 0.0000
  1371 O1371     -4.809673    19.571101    -1.400775 O    1 RES 0.0000
  1372 O1372     -4.809673    19.571101    24.942225 O    1 RES 0.0000
  1373 O1373     21.533327    19.571101    -1.400775 O    1 RES 0.0000
  1374 O1374     21.533327    19.571101    24.942225 O    1 RES 0.0000
  1375 O1375     17.981173    19.943399    -1.400775 O    1 RES 0.0000
  1376 O1376     17.981173    19.943399    24.942225 O    1 RES 0.0000
  1377 O1377     14.572275    -4.809673    19.943399 O    1 RES 0.0000
  1378 O1378     14.572275    21.533327    19.943399 O    1 RES 0.0000
  1379 O1379     14.572275     4.809673     6.399601 O    1 RES 0.0000
  1380 O1380     14.572275    31.152673     6.399601 O    1 RES 0.0000
  1381 O1381     -1.400775    17.981173    19.943399 O    1 RES 0.0000
  1382 O1382     24.942225    17.981173    19.943399 O    1 RES 0.0000
  1383 O1383     -1.400775     8.361827     6.399601 O    1 RES 0.0000
  1384 O1384     24.942225     8.361827     6.399601 O    1 RES 0.0000
  1385 O1385     -4.809673    11.770725     6.399601 O    1 RES 0.0000
  1386 O1386     21.533327    11.770725     6.399601 O    1 RES 0.0000
  1387 O1387     17.981173    -1.400775    19.943399 O    1 RES 0.0000
  1388 O1388     17.981173    24.942225    19.943399 O    1 RES 0.0000
  1389 O1389     17.981173     1.400775     6.399601 O    1 RES 0.0000
  1390 O1390     17.981173    27.743775     6.399601 O    1 RES 0.0000
  1391 O1391     -4.809673    14.572275    19.943399 O    1 RES 0.0000
  1392 O1392     21.533327    14.572275    19.943399 O    1 RES 0.0000
  1393 O1393     -1.400775    19.571101    -4.809673 O    1 RES 0.0000
  1394 O1394     -1.400775    19.571101    21.533327 O    1 RES 0.0000
  1395 O1395     24.942225    19.571101    -4.809673 O    1 RES 0.0000
  1396 O1396     24.942225    19.571101    21.533327 O    1 RES 0.0000
  1397 O1397     -1.400775     6.771899     4.809673 O    1 RES 0.0000
  1398 O1398     -1.400775     6.771899    31.152673 O    1 RES 0.0000
  1399 O1399     24.942225     6.771899     4.809673 O    1 RES 0.0000
  1400 O1400     24.942225     6.771899    31.152673 O    1 RES 0.0000
  1401 O1401     14.572275     6.399601     4.809673 O    1 RES 0.0000
  1402 O1402     14.572275     6.399601    31.152673 O    1 RES 0.0000
  1403 O1403     14.572275    19.943399    -4.809673 O    1 RES 0.0000
  1404 O1404     14.572275    19.943399    21.533327 O    1 RES 0.0000
  1405 O1405     19.571101    -4.809673    -1.400775 O    1 RES 0.0000
  1406 O1406     19.571101    -4.809673    24.942225 O    1 RES 0.0000
  1407 O1407     19.571101    21.533327    -1.400775 O    1 RES 0.0000
  1408 O1408     19.571101    21.533327    24.942225 O    1 RES 0.0000
  1409 O1409     19.943399    17.981173    -1.400775 O    1 RES 0.0000
  1410 O1410     19.943399    17.981173    24.942225 O    1 RES 0.0000
  1411 O1411     19.571101     4.809673     1.400775 O    1 RES 0.0000
  1412 O1412     19.571101     4.809673    27.743775 O    1 RES 0.0000
  1413 O1413     19.571101    31.152673     1.400775 O    1 RES 0.0000
  1414 O1414     19.571101    31.152673    27.743775 O    1 RES 0.0000
  1415 O1415     19.943399     8.361827     1.400775 O    1 RES 0.0000
  1416 O1416     19.943399     8.361827    27.743775 O    1 RES 0.0000
  1417 O1417     19.571101     1.400775    -4.809673 O    1 RES 0.0000
  1418 O1418     19.571101     1.400775    21.533327 O    1 RES 0.0000
  1419 O1419     19.571101    27.743775    -4.809673 O    1 RES 0.0000
  1420 O1420     19.571101    27.743775    21.533327 O    1 RES 0.0000
  1421 O1421     19.943399    14.572275     4.809673 O    1 RES 0.0000
  1422 O1422     19.943399    14.572275    31.152673 O    1 RES 0.0000
  1423 O1423     19.571101    -1.400775     4.809673 O    1 RES 0.0000
  1424 O1424     19.571101    -1.400775    31.152673 O    1 RES 0.0000
  1425 O1425     19.571101    24.942225     4.809673 O    1 RES 0.0000
  1426 O1426     19.571101    24.942225    31.152673 O    1 RES 0.0000
  1427 O1427     19.943399    11.770725    -4.809673 O    1 RES 0.0000
  1428 O1428     19.943399    11.770725    21.533327 O    1 RES 0.0000
  1429 O1429     -4.809673     6.771899    -1.400775 O    1 RES 0.0000
  1430 O1430     -4.809673     6.771899    24.942225 O    1 RES 0.0000
  1431 O1431     21.533327     6.771899    -1.400775 O    1 RES 0.0000
  1432 O1432     21.533327     6.771899    24.942225 O    1 RES 0.0000
  1433 O1433     17.981173     6.399601    -1.400775 O    1 RES 0.0000
  1434 O1434     17.981173     6.399601    24.942225 O    1 RES 0.0000
  1435 O1435     17.981173    19.943399     1.400775 O    1 RES 0.0000
  1436 O1436     17.981173    19.943399    27.743775 O    1 RES 0.0000
  1437 O1437     -4.809673    19.571101     1.400775 O    1 RES 0.0000
  1438 O1438     -4.809673    19.571101    27.743775 O    1 RES 0.0000
  1439 O1439     21.533327    19.571101     1.400775 O    1 RES 0.0000
  1440 O1440     21.533327    19.571101    27.743775 O    1 RES 0.0000
  1441 O1441     -1.400775    17.981173     6.399601 O    1 RES 0.0000
  1442 O1442     24.942225    17.981173     6.399601 O    1 RES 0.0000
  1443 O1443     -1.400775     8.361827    19.943399 O    1 RES 0.0000
  1444 O1444     24.942225     8.361827    19.943399 O    1 RES 0.0000
  1445 O1445     14.572275    -4.809673     6.399601 O    1 RES 0.0000
  1446 O1446     14.572275    21.533327     6.399601 O    1 RES 0.0000
  1447 O1447     14.572275     4.809673    19.943399 O    1 RES 0.0000
  1448 O1448     14.572275    31.152673    19.943399 O    1 RES 0.0000
  1449 O1449     17.981173    14.572275     6.771899 O    1 RES 0.0000
  1450 O1450     -4.809673     1.400775    19.571101 O    1 RES 0.0000
  1451 O1451     -4.809673    27.743775    19.571101 O    1 RES 0.0000
  1452 O1452     21.533327     1.400775    19.571101 O    1 RES 0.0000
  1453 O1453     21.533327    27.743775    19.571101 O    1 RES 0.0000
  1454 O1454     -4.809673    -1.400775     6.771899 O    1 RES 0.0000
  1455 O1455     -4.809673    24.942225     6.771899 O    1 RES 0.0000
  1456 O1456     21.533327    -1.400775     6.771899 O    1 RES 0.0000
  1457 O1457     21.533327    24.942225     6.771899 O    1 RES 0.0000
  1458 O1458     17.981173    11.770725    19.571101 O    1 RES 0.0000
  1459 O1459     14.572275     6.771899    17.981173 O    1 RES 0.0000
  1460 O1460     14.572275    19.571101     8.361827 O    1 RES 0.0000
  1461 O1461     -1.400775    19.943399     8.361827 O    1 RES 0.0000
  1462 O1462     24.942225    19.943399     8.361827 O    1 RES 0.0000
  1463 O1463     -1.400775     6.399601    17.981173 O    1 RES 0.0000
  1464 O1464     24.942225     6.399601    17.981173 O    1 RES 0.0000
  1465 O1465     19.943399     4.809673    14.572275 O    1 RES 0.0000
  1466 O1466     19.943399    31.152673    14.572275 O    1 RES 0.0000
  1467 O1467     19.571101     8.361827    14.572275 O    1 RES 0.0000
  1468 O1468     19.943399    -4.809673    11.770725 O    1 RES 0.0000
  1469 O1469     19.943399    21.533327    11.770725 O    1 RES 0.0000
  1470 O1470     19.571101    17.981173    11.770725 O    1 RES 0.0000
  1471 O1471     19.943399    -1.400775    17.981173 O    1 RES 0.0000
  1472 O1472     19.943399    24.942225    17.981173 O    1 RES 0.0000
  1473 O1473     19.571101    11.770725     8.361827 O    1 RES 0.0000
  1474 O1474     19.943399     1.400775     8.361827 O    1 RES 0.0000
  1475 O1475     19.943399    27.743775     8.361827 O    1 RES 0.0000
  1476 O1476     19.571101    14.572275    17.981173 O    1 RES 0.0000
  1477 O1477     17.981173    19.571101    14.572275 O    1 RES 0.0000
  1478 O1478     -4.809673    19.943399    14.572275 O    1 RES 0.0000
  1479 O1479     21.533327    19.943399    14.572275 O    1 RES 0.0000
  1480 O1480     -4.809673     6.399601    11.770725 O    1 RES 0.0000
  1481 O1481     21.533327     6.399601    11.770725 O    1 RES 0.0000
  1482 O1482     17.981173     6.771899    11.770725 O    1 RES 0.0000
  1483 O1483     14.572275     8.361827     6.771899 O    1 RES 0.0000
  1484 O1484     14.572275    17.981173    19.571101 O    1 RES 0.0000
  1485 O1485     -1.400775     4.809673     6.771899 O    1 RES 0.0000
  1486 O1486     -1.400775    31.152673     6.771899 O    1 RES 0.0000
  1487 O1487     24.942225     4.809673     6.771899 O    1 RES 0.0000
  1488 O1488     24.942225    31.152673     6.771899 O    1 RES 0.0000
  1489 O1489     -1.400775    -4.809673    19.571101 O    1 RES 0.0000
  1490 O1490     -1.400775    21.533327    19.571101 O    1 RES 0.0000
  1491 O1491     24.942225    -4.809673    19.571101 O    1 RES 0.0000
  1492 O1492     24.942225    21.533327    19.571101 O    1 RES 0.0000
  1493 O1493     -4.809673    -1.400775    19.571101 O    1 RES 0.0000
  1494 O1494     -4.809673    24.942225    19.571101 O    1 RES 0.0000
  1495 O1495     21.533327    -1.400775    19.571101 O    1 RES 0.0000
  1496 O1496     21.533327    24.942225    19.571101 O    1 RES 0.0000
  1497 O1497     17.981173    11.770725     6.771899 O    1 RES 0.0000
  1498 O1498     17.981173    14.572275    19.571101 O    1 RES 0.0000
  1499 O1499     -4.809673     1.400775     6.771899 O    1 RES 0.0000
  1500 O1500     -4.809673    27.743775     6.771899 O    1 RES 0.0000
  1501 O1501     21.533327     1.400775     6.771899 O    1 RES 0.0000
  1502 O1502     21.533327    27.743775     6.771899 O    1 RES 0.0000
  1503 O1503     -1.400775     6.399601     8.361827 O    1 RES 0.0000
  1504 O1504     24.942225     6.399601     8.361827 O    1 RES 0.0000
  1505 O1505     -1.400775    19.943399    17.981173 O    1 RES 0.0000
  1506 O1506     24.942225    19.943399    17.981173 O    1 RES 0.0000
  1507 O1507     14.572275    19.571101    17.981173 O    1 RES 0.0000
  1508 O1508     14.572275     6.771899     8.361827 O    1 RES 0.0000
  1509 O1509     19.571101     8.361827    11.770725 O    1 RES 0.0000
  1510 O1510     19.943399     4.809673    11.770725 O    1 RES 0.0000
  1511 O1511     19.943399    31.152673    11.770725 O    1 RES 0.0000
  1512 O1512     19.571101    17.981173    14.572275 O    1 RES 0.0000
  1513 O1513     19.943399    -4.809673    14.572275 O    1 RES 0.0000
  1514 O1514     19.943399    21.533327    14.572275 O    1 RES 0.0000
  1515 O1515     19.571101    14.572275     8.361827 O    1 RES 0.0000
  1516 O1516     19.943399     1.400775    17.981173 O    1 RES 0.0000
  1517 O1517     19.943399    27.743775    17.981173 O    1 RES 0.0000
  1518 O1518     19.571101    11.770725    17.981173 O    1 RES 0.0000
  1519 O1519     19.943399    -1.400775     8.361827 O    1 RES 0.0000
  1520 O1520     19.943399    24.942225     8.361827 O    1 RES 0.0000
  1521 O1521     -4.809673    19.943399    11.770725 O    1 RES 0.0000
  1522 O1522     21.533327    19.943399    11.770725 O    1 RES 0.0000
  1523 O1523     17.981173    19.571101    11.770725 O    1 RES 0.0000
  1524 O1524     17.981173     6.771899    14.572275 O    1 RES 0.0000
  1525 O1525     -4.809673     6.399601    14.572275 O    1 RES 0.0000
  1526 O1526     21.533327     6.399601    14.572275 O    1 RES 0.0000
  1527 O1527     -1.400775     4.809673    19.571101 O    1 RES 0.0000
  1528 O1528     -1.400775    31.152673    19.571101 O    1 RES 0.0000
  1529 O1529     24.942225     4.809673    19.571101 O    1 RES 0.0000
  1530 O1530     24.942225    31.152673    19.571101 O    1 RES 0.0000
  1531 O1531     -1.400775    -4.809673     6.771899 O    1 RES 0.0000
  1532 O1532     -1.400775    21.533327     6.771899 O    1 RES 0.0000
  1533 O1533     24.942225    -4.809673     6.771899 O    1 RES 0.0000
  1534 O1534     24.942225    21.533327     6.771899 O    1 RES 0.0000
  1535 O1535     14.572275     8.361827    19.571101 O    1 RES 0.0000
  1536 O1536     14.572275    17.981173     6.771899 O    1 RES 0.0000
  1537 O1537      4.809673     1.400775     6.771899 O    1 RES 0.0000
  1538 O1538      4.809673    27.743775     6.771899 O    1 RES 0.0000
  1539 O1539     31.152673     1.400775     6.771899 O    1 RES 0.0000
  1540 O1540     31.152673    27.743775     6.771899 O    1 RES 0.0000
  1541 O1541      8.361827    14.572275    19.571101 O    1 RES 0.0000
  1542 O1542      8.361827    11.770725     6.771899 O    1 RES 0.0000
  1543 O1543      4.809673    -1.400775    19.571101 O    1 RES 0.0000
  1544 O1544      4.809673    24.942225    19.571101 O    1 RES 0.0000
  1545 O1545     31.152673    -1.400775    19.571101 O    1 RES 0.0000
  1546 O1546     31.152673    24.942225    19.571101 O    1 RES 0.0000
  1547 O1547      1.400775    19.943399    17.981173 O    1 RES 0.0000
  1548 O1548     27.743775    19.943399    17.981173 O    1 RES 0.0000
  1549 O1549      1.400775     6.399601     8.361827 O    1 RES 0.0000
  1550 O1550     27.743775     6.399601     8.361827 O    1 RES 0.0000
  1551 O1551     11.770725     6.771899     8.361827 O    1 RES 0.0000
  1552 O1552     11.770725    19.571101    17.981173 O    1 RES 0.0000
  1553 O1553      6.771899    17.981173    14.572275 O    1 RES 0.0000
  1554 O1554      6.399601    -4.809673    14.572275 O    1 RES 0.0000
  1555 O1555      6.399601    21.533327    14.572275 O    1 RES 0.0000
  1556 O1556      6.771899     8.361827    11.770725 O    1 RES 0.0000
  1557 O1557      6.399601     4.809673    11.770725 O    1 RES 0.0000
  1558 O1558      6.399601    31.152673    11.770725 O    1 RES 0.0000
  1559 O1559      6.771899    11.770725    17.981173 O    1 RES 0.0000
  1560 O1560      6.399601    -1.400775     8.361827 O    1 RES 0.0000
  1561 O1561      6.399601    24.942225     8.361827 O    1 RES 0.0000
  1562 O1562      6.771899    14.572275     8.361827 O    1 RES 0.0000
  1563 O1563      6.399601     1.400775    17.981173 O    1 RES 0.0000
  1564 O1564      6.399601    27.743775    17.981173 O    1 RES 0.0000
  1565 O1565      4.809673     6.399601    14.572275 O    1 RES 0.0000
  1566 O1566     31.152673     6.399601    14.572275 O    1 RES 0.0000
  1567 O1567      8.361827     6.771899    14.572275 O    1 RES 0.0000
  1568 O1568      8.361827    19.571101    11.770725 O    1 RES 0.0000
  1569 O1569      4.809673    19.943399    11.770725 O    1 RES 0.0000
  1570 O1570     31.152673    19.943399    11.770725 O    1 RES 0.0000
  1571 O1571      1.400775    -4.809673     6.771899 O    1 RES 0.0000
  1572 O1572      1.400775    21.533327     6.771899 O    1 RES 0.0000
  1573 O1573     27.743775    -4.809673     6.771899 O    1 RES 0.0000
  1574 O1574     27.743775    21.533327     6.771899 O    1 RES 0.0000
  1575 O1575      1.400775     4.809673    19.571101 O    1 RES 0.0000
  1576 O1576      1.400775    31.152673    19.571101 O    1 RES 0.0000
  1577 O1577     27.743775     4.809673    19.571101 O    1 RES 0.0000
  1578 O1578     27.743775    31.152673    19.571101 O    1 RES 0.0000
  1579 O1579     11.770725    17.981173     6.771899 O    1 RES 0.0000
  1580 O1580     11.770725     8.361827    19.571101 O    1 RES 0.0000
  1581 O1581      8.361827    11.770725    19.571101 O    1 RES 0.0000
  1582 O1582      4.809673    -1.400775     6.771899 O    1 RES 0.0000
  1583 O1583      4.809673    24.942225     6.771899 O    1 RES 0.0000
  1584 O1584     31.152673    -1.400775     6.771899 O    1 RES 0.0000
  1585 O1585     31.152673    24.942225     6.771899 O    1 RES 0.0000
  1586 O1586      4.809673     1.400775    19.571101 O    1 RES 0.0000
  1587 O1587      4.809673    27.743775    19.571101 O    1 RES 0.0000
  1588 O1588     31.152673     1.400775    19.571101 O    1 RES 0.0000
  1589 O1589     31.152673    27.743775    19.571101 O    1 RES 0.0000
  1590 O1590      8.361827    14.572275     6.771899 O    1 RES 0.0000
  1591 O1591     11.770725    19.571101     8.361827 O    1 RES 0.0000
  1592 O1592     11.770725     6.771899    17.981173 O    1 RES 0.0000
  1593 O1593      1.400775     6.399601    17.981173 O    1 RES 0.0000
  1594 O1594     27.743775     6.399601    17.981173 O    1 RES 0.0000
  1595 O1595      1.400775    19.943399     8.361827 O    1 RES 0.0000
  1596 O1596     27.743775    19.943399     8.361827 O    1 RES 0.0000
  1597 O1597      6.399601    -4.809673    11.770725 O    1 RES 0.0000
  1598 O1598      6.399601    21.533327    11.770725 O    1 RES 0.0000
  1599 O1599      6.771899    17.981173    11.770725 O    1 RES 0.0000
  1600 O1600      6.399601     4.809673    14.572275 O    1 RES 0.0000
  1601 O1601      6.399601    31.152673    14.572275 O    1 RES 0.0000
  1602 O1602      6.771899     8.361827    14.572275 O    1 RES 0.0000
  1603 O1603      6.399601     1.400775     8.361827 O    1 RES 0.0000
  1604 O1604      6.399601    27.743775     8.361827 O    1 RES 0.0000
  1605 O1605      6.771899    14.572275    17.981173 O    1 RES 0.0000
  1606 O1606      6.399601    -1.400775    17.981173 O    1 RES 0.0000
  1607 O1607      6.399601    24.942225    17.981173 O    1 RES 0.0000
  1608 O1608      6.771899    11.770725     8.361827 O    1 RES 0.0000
  1609 O1609      8.361827     6.771899    11.770725 O    1 RES 0.0000
  1610 O1610      4.809673     6.399601    11.770725 O    1 RES 0.0000
  1611 O1611     31.152673     6.399601    11.770725 O    1 RES 0.0000
  1612 O1612      4.809673    19.943399    14.572275 O    1 RES 0.0000
  1613 O1613     31.152673    19.943399    14.572275 O    1 RES 0.0000
  1614 O1614      8.361827    19.571101    14.572275 O    1 RES 0.0000
  1615 O1615     11.770725    17.981173    19.571101 O    1 RES 0.0000
  1616 O1616     11.770725     8.361827     6.771899 O    1 RES 0.0000
  1617 O1617      1.400775    -4.809673    19.571101 O    1 RES 0.0000
  1618 O1618      1.400775    21.533327    19.571101 O    1 RES 0.0000
  1619 O1619     27.743775    -4.809673    19.571101 O    1 RES 0.0000
  1620 O1620     27.743775    21.533327    19.571101 O    1 RES 0.0000
  1621 O1621      1.400775     4.809673     6.771899 O    1 RES 0.0000
  1622 O1622      1.400775    31.152673     6.771899 O    1 RES 0.0000
  1623 O1623     27.743775     4.809673     6.771899 O    1 RES 0.0000
  1624 O1624     27.743775    31.152673     6.771899 O    1 RES 0.0000
  1625 O1625      4.809673    14.572275    19.943399 O    1 RES 0.0000
  1626 O1626     31.152673    14.572275    19.943399 O    1 RES 0.0000
  1627 O1627      8.361827     1.400775     6.399601 O    1 RES 0.0000
  1628 O1628      8.361827    27.743775     6.399601 O    1 RES 0.0000
  1629 O1629      8.361827    -1.400775    19.943399 O    1 RES 0.0000
  1630 O1630      8.361827    24.942225    19.943399 O    1 RES 0.0000
  1631 O1631      4.809673    11.770725     6.399601 O    1 RES 0.0000
  1632 O1632     31.152673    11.770725     6.399601 O    1 RES 0.0000
  1633 O1633      1.400775     6.771899     4.809673 O    1 RES 0.0000
  1634 O1634      1.400775     6.771899    31.152673 O    1 RES 0.0000
  1635 O1635     27.743775     6.771899     4.809673 O    1 RES 0.0000
  1636 O1636     27.743775     6.771899    31.152673 O    1 RES 0.0000
  1637 O1637      1.400775    19.571101    -4.809673 O    1 RES 0.0000
  1638 O1638      1.400775    19.571101    21.533327 O    1 RES 0.0000
  1639 O1639     27.743775    19.571101    -4.809673 O    1 RES 0.0000
  1640 O1640     27.743775    19.571101    21.533327 O    1 RES 0.0000
  1641 O1641     11.770725    19.943399    -4.809673 O    1 RES 0.0000
  1642 O1642     11.770725    19.943399    21.533327 O    1 RES 0.0000
  1643 O1643     11.770725     6.399601     4.809673 O    1 RES 0.0000
  1644 O1644     11.770725     6.399601    31.152673 O    1 RES 0.0000
  1645 O1645      6.771899     4.809673     1.400775 O    1 RES 0.0000
  1646 O1646      6.771899     4.809673    27.743775 O    1 RES 0.0000
  1647 O1647      6.771899    31.152673     1.400775 O    1 RES 0.0000
  1648 O1648      6.771899    31.152673    27.743775 O    1 RES 0.0000
  1649 O1649      6.399601     8.361827     1.400775 O    1 RES 0.0000
  1650 O1650      6.399601     8.361827    27.743775 O    1 RES 0.0000
  1651 O1651      6.771899    -4.809673    -1.400775 O    1 RES 0.0000
  1652 O1652      6.771899    -4.809673    24.942225 O    1 RES 0.0000
  1653 O1653      6.771899    21.533327    -1.400775 O    1 RES 0.0000
  1654 O1654      6.771899    21.533327    24.942225 O    1 RES 0.0000
  1655 O1655      6.399601    17.981173    -1.400775 O    1 RES 0.0000
  1656 O1656      6.399601    17.981173    24.942225 O    1 RES 0.0000
  1657 O1657      6.771899    -1.400775     4.809673 O    1 RES 0.0000
  1658 O1658      6.771899    -1.400775    31.152673 O    1 RES 0.0000
  1659 O1659      6.771899    24.942225     4.809673 O    1 RES 0.0000
  1660 O1660      6.771899    24.942225    31.152673 O    1 RES 0.0000
  1661 O1661      6.399601    11.770725    -4.809673 O    1 RES 0.0000
  1662 O1662      6.399601    11.770725    21.533327 O    1 RES 0.0000
  1663 O1663      6.771899     1.400775    -4.809673 O    1 RES 0.0000
  1664 O1664      6.771899     1.400775    21.533327 O    1 RES 0.0000
  1665 O1665      6.771899    27.743775    -4.809673 O    1 RES 0.0000
  1666 O1666      6.771899    27.743775    21.533327 O    1 RES 0.0000
  1667 O1667      6.399601    14.572275     4.809673 O    1 RES 0.0000
  1668 O1668      6.399601    14.572275    31.152673 O    1 RES 0.0000
  1669 O1669      4.809673    19.571101     1.400775 O    1 RES 0.0000
  1670 O1670      4.809673    19.571101    27.743775 O    1 RES 0.0000
  1671 O1671     31.152673    19.571101     1.400775 O    1 RES 0.0000
  1672 O1672     31.152673    19.571101    27.743775 O    1 RES 0.0000
  1673 O1673      8.361827    19.943399     1.400775 O    1 RES 0.0000
  1674 O1674      8.361827    19.943399    27.743775 O    1 RES 0.0000
  1675 O1675      8.361827     6.399601    -1.400775 O    1 RES 0.0000
  1676 O1676      8.361827     6.399601    24.942225 O    1 RES 0.0000
  1677 O1677      4.809673     6.771899    -1.400775 O    1 RES 0.0000
  1678 O1678      4.809673     6.771899    24.942225 O    1 RES 0.0000
  1679 O1679     31.152673     6.771899    -1.400775 O    1 RES 0.0000
  1680 O1680     31.152673     6.771899    24.942225 O    1 RES 0.0000
  1681 O1681      1.400775     8.361827    19.943399 O    1 RES 0.0000
  1682 O1682     27.743775     8.361827    19.943399 O    1 RES 0.0000
  1683 O1683      1.400775    17.981173     6.399601 O    1 RES 0.0000
  1684 O1684     27.743775    17.981173     6.399601 O    1 RES 0.0000
  1685 O1685     11.770725     4.809673    19.943399 O    1 RES 0.0000
  1686 O1686     11.770725    31.152673    19.943399 O    1 RES 0.0000
  1687 O1687     11.770725    -4.809673     6.399601 O    1 RES 0.0000
  1688 O1688     11.770725    21.533327     6.399601 O    1 RES 0.0000
  1689 O1689      8.361827    -1.400775     6.399601 O    1 RES 0.0000
  1690 O1690      8.361827    24.942225     6.399601 O    1 RES 0.0000
  1691 O1691      4.809673    11.770725    19.943399 O    1 RES 0.0000
  1692 O1692     31.152673    11.770725    19.943399 O    1 RES 0.0000
  1693 O1693      4.809673    14.572275     6.399601 O    1 RES 0.0000
  1694 O1694     31.152673    14.572275     6.399601 O    1 RES 0.0000
  1695 O1695      8.361827     1.400775    19.943399 O    1 RES 0.0000
  1696 O1696      8.361827    27.743775    19.943399 O    1 RES 0.0000
  1697 O1697     11.770725     6.399601    -4.809673 O    1 RES 0.0000
  1698 O1698     11.770725     6.399601    21.533327 O    1 RES 0.0000
  1699 O1699     11.770725    19.943399     4.809673 O    1 RES 0.0000
  1700 O1700     11.770725    19.943399    31.152673 O    1 RES 0.0000
  1701 O1701      1.400775    19.571101     4.809673 O    1 RES 0.0000
  1702 O1702      1.400775    19.571101    31.152673 O    1 RES 0.0000
  1703 O1703     27.743775    19.571101     4.809673 O    1 RES 0.0000
  1704 O1704     27.743775    19.571101    31.152673 O    1 RES 0.0000
  1705 O1705      1.400775     6.771899    -4.809673 O    1 RES 0.0000
  1706 O1706      1.400775     6.771899    21.533327 O    1 RES 0.0000
  1707 O1707     27.743775     6.771899    -4.809673 O    1 RES 0.0000
  1708 O1708     27.743775     6.771899    21.533327 O    1 RES 0.0000
  1709 O1709      6.399601     8.361827    -1.400775 O    1 RES 0.0000
  1710 O1710      6.399601     8.361827    24.942225 O    1 RES 0.0000
  1711 O1711      6.771899     4.809673    -1.400775 O    1 RES 0.0000
  1712 O1712      6.771899     4.809673    24.942225 O    1 RES 0.0000
  1713 O1713      6.771899    31.152673    -1.400775 O    1 RES 0.0000
  1714 O1714      6.771899    31.152673    24.942225 O    1 RES 0.0000
  1715 O1715      6.399601    17.981173     1.400775 O    1 RES 0.0000
  1716 O1716      6.399601    17.981173    27.743775 O    1 RES 0.0000
  1717 O1717      6.771899    -4.809673     1.400775 O    1 RES 0.0000
  1718 O1718      6.771899    -4.809673    27.743775 O    1 RES 0.0000
  1719 O1719      6.771899    21.533327     1.400775 O    1 RES 0.0000
  1720 O1720      6.771899    21.533327    27.743775 O    1 RES 0.0000
  1721 O1721      6.399601    14.572275    -4.809673 O    1 RES 0.0000
  1722 O1722      6.399601    14.572275    21.533327 O    1 RES 0.0000
  1723 O1723      6.771899     1.400775     4.809673 O    1 RES 0.0000
  1724 O1724      6.771899     1.400775    31.152673 O    1 RES 0.0000
  1725 O1725      6.771899    27.743775     4.809673 O    1 RES 0.0000
  1726 O1726      6.771899    27.743775    31.152673 O    1 RES 0.0000
  1727 O1727      6.399601    11.770725     4.809673 O    1 RES 0.0000
  1728 O1728      6.399601    11.770725    31.152673 O    1 RES 0.0000
  1729 O1729      6.771899    -1.400775    -4.809673 O    1 RES 0.0000
  1730 O1730      6.771899    -1.400775    21.533327 O    1 RES 0.0000
  1731 O1731      6.771899    24.942225    -4.809673 O    1 RES 0.0000
  1732 O1732      6.771899    24.942225    21.533327 O    1 RES 0.0000
  1733 O1733      8.361827    19.943399    -1.400775 O    1 RES 0.0000
  1734 O1734      8.361827    19.943399    24.942225 O    1 RES 0.0000
  1735 O1735      4.809673    19.571101    -1.400775 O    1 RES 0.0000
  1736 O1736      4.809673    19.571101    24.942225 O    1 RES 0.0000
  1737 O1737     31.152673    19.571101    -1.400775 O    1 RES 0.0000
  1738 O1738     31.152673    19.571101    24.942225 O    1 RES 0.0000
  1739 O1739      4.809673     6.771899     1.400775 O    1 RES 0.0000
  1740 O1740      4.809673     6.771899    27.743775 O    1 RES 0.0000
  1741 O1741     31.152673     6.771899     1.400775 O    1 RES 0.0000
  1742 O1742     31.152673     6.771899    27.743775 O    1 RES 0.0000
  1743 O1743      8.361827     6.399601     1.400775 O    1 RES 0.0000
  1744 O1744      8.361827     6.399601    27.743775 O    1 RES 0.0000
  1745 O1745     11.770725     4.809673     6.399601 O    1 RES 0.0000
  1746 O1746     11.770725    31.152673     6.399601 O    1 RES 0.0000
  1747 O1747     11.770725    -4.809673    19.943399 O    1 RES 0.0000
  1748 O1748     11.770725    21.533327    19.943399 O    1 RES 0.0000
  1749 O1749      1.400775     8.361827     6.399601 O    1 RES 0.0000
  1750 O1750     27.743775     8.361827     6.399601 O    1 RES 0.0000
  1751 O1751      1.400775    17.981173    19.943399 O    1 RES 0.0000
  1752 O1752     27.743775    17.981173    19.943399 O    1 RES 0.0000
  1753 O1753     16.155594     2.984094    19.985159 O    1 RES 0.0000
  1754 O1754     16.155594    29.327094    19.985159 O    1 RES 0.0000
  1755 O1755     -2.984094    16.155594     6.357841 O    1 RES 0.0000
  1756 O1756     23.358906    16.155594     6.357841 O    1 RES 0.0000
  1757 O1757     -2.984094    10.187406    19.985159 O    1 RES 0.0000
  1758 O1758     23.358906    10.187406    19.985159 O    1 RES 0.0000
  1759 O1759     16.155594    -2.984094     6.357841 O    1 RES 0.0000
  1760 O1760     16.155594    23.358906     6.357841 O    1 RES 0.0000
  1761 O1761     19.985159    10.187406     2.984094 O    1 RES 0.0000
  1762 O1762     19.985159    10.187406    29.327094 O    1 RES 0.0000
  1763 O1763     19.529341    -2.984094    -2.984094 O    1 RES 0.0000
  1764 O1764     19.529341    -2.984094    23.358906 O    1 RES 0.0000
  1765 O1765     19.529341    23.358906    -2.984094 O    1 RES 0.0000
  1766 O1766     19.529341    23.358906    23.358906 O    1 RES 0.0000
  1767 O1767     19.985159    16.155594    -2.984094 O    1 RES 0.0000
  1768 O1768     19.985159    16.155594    23.358906 O    1 RES 0.0000
  1769 O1769     19.529341     2.984094     2.984094 O    1 RES 0.0000
  1770 O1770     19.529341     2.984094    29.327094 O    1 RES 0.0000
  1771 O1771     19.529341    29.327094     2.984094 O    1 RES 0.0000
  1772 O1772     19.529341    29.327094    29.327094 O    1 RES 0.0000
  1773 O1773     16.155594    16.155594     6.813659 O    1 RES 0.0000
  1774 O1774     -2.984094     2.984094    19.529341 O    1 RES 0.0000
  1775 O1775     -2.984094    29.327094    19.529341 O    1 RES 0.0000
  1776 O1776     23.358906     2.984094    19.529341 O    1 RES 0.0000
  1777 O1777     23.358906    29.327094    19.529341 O    1 RES 0.0000
  1778 O1778     -2.984094    -2.984094     6.813659 O    1 RES 0.0000
  1779 O1779     -2.984094    23.358906     6.813659 O    1 RES 0.0000
  1780 O1780     23.358906    -2.984094     6.813659 O    1 RES 0.0000
  1781 O1781     23.358906    23.358906     6.813659 O    1 RES 0.0000
  1782 O1782     16.155594    10.187406    19.529341 O    1 RES 0.0000
  1783 O1783     19.985159    -2.984094    16.155594 O    1 RES 0.0000
  1784 O1784     19.985159    23.358906    16.155594 O    1 RES 0.0000
  1785 O1785     19.529341    10.187406    10.187406 O    1 RES 0.0000
  1786 O1786     19.985159     2.984094    10.187406 O    1 RES 0.0000
  1787 O1787     19.985159    29.327094    10.187406 O    1 RES 0.0000
  1788 O1788     19.529341    16.155594    16.155594 O    1 RES 0.0000
  1789 O1789      2.984094     2.984094     6.813659 O    1 RES 0.0000
  1790 O1790      2.984094    29.327094     6.813659 O    1 RES 0.0000
  1791 O1791     29.327094     2.984094     6.813659 O    1 RES 0.0000
  1792 O1792     29.327094    29.327094     6.813659 O    1 RES 0.0000
  1793 O1793     10.187406    16.155594    19.529341 O    1 RES 0.0000
  1794 O1794     10.187406    10.187406     6.813659 O    1 RES 0.0000
  1795 O1795      2.984094    -2.984094    19.529341 O    1 RES 0.0000
  1796 O1796      2.984094    23.358906    19.529341 O    1 RES 0.0000
  1797 O1797     29.327094    -2.984094    19.529341 O    1 RES 0.0000
  1798 O1798     29.327094    23.358906    19.529341 O    1 RES 0.0000
  1799 O1799      6.813659    10.187406    16.155594 O    1 RES 0.0000
  1800 O1800      6.357841    -2.984094    10.187406 O    1 RES 0.0000
  1801 O1801      6.357841    23.358906    10.187406 O    1 RES 0.0000
  1802 O1802      6.813659    16.155594    10.187406 O    1 RES 0.0000
  1803 O1803      6.357841     2.984094    16.155594 O    1 RES 0.0000
  1804 O1804      6.357841    29.327094    16.155594 O    1 RES 0.0000
  1805 O1805      2.984094    16.155594    19.985159 O    1 RES 0.0000
  1806 O1806     29.327094    16.155594    19.985159 O    1 RES 0.0000
  1807 O1807     10.187406     2.984094     6.357841 O    1 RES 0.0000
  1808 O1808     10.187406    29.327094     6.357841 O    1 RES 0.0000
  1809 O1809     10.187406    -2.984094    19.985159 O    1 RES 0.0000
  1810 O1810     10.187406    23.358906    19.985159 O    1 RES 0.0000
  1811 O1811      2.984094    10.187406     6.357841 O    1 RES 0.0000
  1812 O1812     29.327094    10.187406     6.357841 O    1 RES 0.0000
  1813 O1813      6.813659    -2.984094     2.984094 O    1 RES 0.0000
  1814 O1814      6.813659    -2.984094    29.327094 O    1 RES 0.0000
  1815 O1815      6.813659    23.358906     2.984094 O    1 RES 0.0000
  1816 O1816      6.813659    23.358906    29.327094 O    1 RES 0.0000
  1817 O1817      6.357841    10.187406    -2.984094 O    1 RES 0.0000
  1818 O1818      6.357841    10.187406    23.358906 O    1 RES 0.0000
  1819 O1819      6.813659     2.984094    -2.984094 O    1 RES 0.0000
  1820 O1820      6.813659     2.984094    23.358906 O    1 RES 0.0000
  1821 O1821      6.813659    29.327094    -2.984094 O    1 RES 0.0000
  1822 O1822      6.813659    29.327094    23.358906 O    1 RES 0.0000
  1823 O1823      6.357841    16.155594     2.984094 O    1 RES 0.0000
  1824 O1824      6.357841    16.155594    29.327094 O    1 RES 0.0000
@<TRIPOS>BOND
     1      1   1321 1
     2      1   1387 1
     3      1   1471 1
     4      1   1516 1
     5      2   1322 1
     6      2   1388 1
     7      2   1472 1
     8      2   1517 1
     9      3   1323 1
    10      3   1385 1
    11      4   1324 1
    12      4   1386 1
    13      4   1473 1
    14      4   1515 1
    15      5   1454 1
    16      5   1499 1
    17      7   1455 1
    18      7   1500 1
    19      9   1361 1
    20      9   1423 1
    21      9   1456 1
    22      9   1501 1
    23     10   1362 1
    24     10   1424 1
    25     11   1363 1
    26     11   1425 1
    27     11   1457 1
    28     11   1502 1
    29     12   1364 1
    30     12   1426 1
    31     13   1327 1
    32     13   1389 1
    33     13   1474 1
    34     13   1519 1
    35     14   1328 1
    36     14   1390 1
    37     14   1475 1
    38     14   1520 1
    39     15   1329 1
    40     15   1536 1
    41     15   1579 1
    42     15   1699 1
    43     16   1330 1
    44     16   1700 1
    45     17   1383 1
    46     17   1503 1
    47     17   1549 1
    48     17   1749 1
    49     18   1384 1
    50     18   1504 1
    51     18   1550 1
    52     18   1750 1
    53     19   1333 1
    54     19   1705 1
    55     20   1334 1
    56     20   1527 1
    57     20   1575 1
    58     20   1706 1
    59     22   1528 1
    60     22   1576 1
    61     23   1335 1
    62     23   1707 1
    63     24   1336 1
    64     24   1529 1
    65     24   1577 1
    66     24   1708 1
    67     26   1530 1
    68     26   1578 1
    69     27   1443 1
    70     27   1463 1
    71     27   1593 1
    72     27   1681 1
    73     28   1444 1
    74     28   1464 1
    75     28   1594 1
    76     28   1682 1
    77     29   1341 1
    78     29   1375 1
    79     29   1409 1
    80     29   1435 1
    81     30   1342 1
    82     30   1376 1
    83     30   1410 1
    84     30   1436 1
    85     31   1480 1
    86     31   1525 1
    87     32   1467 1
    88     32   1481 1
    89     32   1509 1
    90     32   1526 1
    91     33   1347 1
    92     33   1365 1
    93     33   1415 1
    94     33   1433 1
    95     34   1348 1
    96     34   1366 1
    97     34   1416 1
    98     34   1434 1
    99     35   1367 1
   100     35   1429 1
   101     36   1368 1
   102     36   1430 1
   103     39   1349 1
   104     39   1369 1
   105     39   1411 1
   106     39   1431 1
   107     40   1350 1
   108     40   1370 1
   109     40   1412 1
   110     40   1432 1
   111     41   1351 1
   112     41   1413 1
   113     42   1352 1
   114     42   1414 1
   115     43   1353 1
   116     43   1421 1
   117     43   1449 1
   118     43   1497 1
   119     44   1354 1
   120     44   1422 1
   121     46   1450 1
   122     46   1493 1
   123     48   1451 1
   124     48   1494 1
   125     49   1355 1
   126     49   1417 1
   127     50   1356 1
   128     50   1418 1
   129     50   1452 1
   130     50   1495 1
   131     51   1357 1
   132     51   1419 1
   133     52   1358 1
   134     52   1420 1
   135     52   1453 1
   136     52   1496 1
   137     53   1325 1
   138     53   1391 1
   139     54   1326 1
   140     54   1392 1
   141     54   1476 1
   142     54   1518 1
   143     55   1359 1
   144     55   1427 1
   145     56   1360 1
   146     56   1428 1
   147     56   1458 1
   148     56   1498 1
   149     57   1447 1
   150     57   1459 1
   151     57   1592 1
   152     57   1685 1
   153     58   1448 1
   154     58   1686 1
   155     60   1489 1
   156     60   1617 1
   157     61   1393 1
   158     61   1637 1
   159     62   1394 1
   160     62   1490 1
   161     62   1618 1
   162     62   1638 1
   163     64   1491 1
   164     64   1619 1
   165     65   1395 1
   166     65   1639 1
   167     66   1396 1
   168     66   1492 1
   169     66   1620 1
   170     66   1640 1
   171     67   1441 1
   172     67   1461 1
   173     67   1595 1
   174     67   1683 1
   175     68   1442 1
   176     68   1462 1
   177     68   1596 1
   178     68   1684 1
   179     69   1531 1
   180     69   1571 1
   181     71   1337 1
   182     71   1532 1
   183     71   1572 1
   184     71   1701 1
   185     72   1338 1
   186     72   1702 1
   187     73   1533 1
   188     73   1573 1
   189     75   1339 1
   190     75   1534 1
   191     75   1574 1
   192     75   1703 1
   193     76   1340 1
   194     76   1704 1
   195     77   1465 1
   196     77   1482 1
   197     77   1510 1
   198     77   1524 1
   199     78   1466 1
   200     78   1511 1
   201     81   1371 1
   202     81   1437 1
   203     82   1372 1
   204     82   1438 1
   205     83   1343 1
   206     83   1405 1
   207     84   1344 1
   208     84   1406 1
   209     85   1345 1
   210     85   1373 1
   211     85   1407 1
   212     85   1439 1
   213     86   1346 1
   214     86   1374 1
   215     86   1408 1
   216     86   1440 1
   217     87   1468 1
   218     87   1513 1
   219     88   1469 1
   220     88   1477 1
   221     88   1514 1
   222     88   1523 1
   223     89   1478 1
   224     89   1521 1
   225     90   1470 1
   226     90   1479 1
   227     90   1512 1
   228     90   1522 1
   229     91   1537 1
   230     91   1582 1
   231     91   1657 1
   232     91   1723 1
   233     92   1658 1
   234     92   1724 1
   235     93   1538 1
   236     93   1583 1
   237     93   1659 1
   238     93   1725 1
   239     94   1660 1
   240     94   1726 1
   241     95   1539 1
   242     95   1584 1
   243     97   1540 1
   244     97   1585 1
   245     99   1661 1
   246     99   1721 1
   247    100   1541 1
   248    100   1581 1
   249    100   1662 1
   250    100   1722 1
   251    101   1563 1
   252    101   1606 1
   253    101   1629 1
   254    101   1695 1
   255    102   1564 1
   256    102   1607 1
   257    102   1630 1
   258    102   1696 1
   259    103   1663 1
   260    103   1729 1
   261    104   1543 1
   262    104   1586 1
   263    104   1664 1
   264    104   1730 1
   265    105   1665 1
   266    105   1731 1
   267    106   1544 1
   268    106   1587 1
   269    106   1666 1
   270    106   1732 1
   271    108   1545 1
   272    108   1588 1
   273    110   1546 1
   274    110   1589 1
   275    111   1381 1
   276    111   1505 1
   277    111   1547 1
   278    111   1751 1
   279    112   1382 1
   280    112   1506 1
   281    112   1548 1
   282    112   1752 1
   283    113   1331 1
   284    113   1697 1
   285    114   1332 1
   286    114   1535 1
   287    114   1580 1
   288    114   1698 1
   289    115   1379 1
   290    115   1508 1
   291    115   1551 1
   292    115   1745 1
   293    116   1380 1
   294    116   1746 1
   295    117   1401 1
   296    117   1483 1
   297    117   1616 1
   298    117   1643 1
   299    118   1402 1
   300    118   1644 1
   301    119   1553 1
   302    119   1569 1
   303    119   1599 1
   304    119   1612 1
   305    120   1570 1
   306    120   1613 1
   307    121   1649 1
   308    121   1675 1
   309    121   1709 1
   310    121   1743 1
   311    122   1650 1
   312    122   1676 1
   313    122   1710 1
   314    122   1744 1
   315    123   1556 1
   316    123   1565 1
   317    123   1602 1
   318    123   1610 1
   319    124   1566 1
   320    124   1611 1
   321    125   1557 1
   322    125   1567 1
   323    125   1600 1
   324    125   1609 1
   325    126   1558 1
   326    126   1601 1
   327    127   1559 1
   328    127   1605 1
   329    127   1625 1
   330    127   1691 1
   331    128   1626 1
   332    128   1692 1
   333    129   1560 1
   334    129   1603 1
   335    129   1627 1
   336    129   1689 1
   337    130   1561 1
   338    130   1604 1
   339    130   1628 1
   340    130   1690 1
   341    131   1542 1
   342    131   1590 1
   343    131   1667 1
   344    131   1727 1
   345    132   1668 1
   346    132   1728 1
   347    133   1562 1
   348    133   1608 1
   349    133   1631 1
   350    133   1693 1
   351    134   1632 1
   352    134   1694 1
   353    135   1397 1
   354    135   1485 1
   355    135   1621 1
   356    135   1633 1
   357    136   1398 1
   358    136   1634 1
   359    137   1486 1
   360    137   1622 1
   361    139   1399 1
   362    139   1487 1
   363    139   1623 1
   364    139   1635 1
   365    140   1400 1
   366    140   1636 1
   367    141   1488 1
   368    141   1624 1
   369    143   1445 1
   370    143   1687 1
   371    144   1446 1
   372    144   1460 1
   373    144   1591 1
   374    144   1688 1
   375    145   1403 1
   376    145   1641 1
   377    146   1404 1
   378    146   1484 1
   379    146   1615 1
   380    146   1642 1
   381    147   1377 1
   382    147   1747 1
   383    148   1378 1
   384    148   1507 1
   385    148   1552 1
   386    148   1748 1
   387    149   1645 1
   388    149   1677 1
   389    149   1711 1
   390    149   1739 1
   391    150   1646 1
   392    150   1678 1
   393    150   1712 1
   394    150   1740 1
   395    151   1647 1
   396    151   1713 1
   397    152   1648 1
   398    152   1714 1
   399    153   1679 1
   400    153   1741 1
   401    154   1680 1
   402    154   1742 1
   403    157   1554 1
   404    157   1597 1
   405    158   1555 1
   406    158   1568 1
   407    158   1598 1
   408    158   1614 1
   409    159   1651 1
   410    159   1717 1
   411    160   1652 1
   412    160   1718 1
   413    161   1653 1
   414    161   1669 1
   415    161   1719 1
   416    161   1735 1
   417    162   1654 1
   418    162   1670 1
   419    162   1720 1
   420    162   1736 1
   421    165   1671 1
   422    165   1737 1
   423    166   1672 1
   424    166   1738 1
   425    167   1655 1
   426    167   1673 1
   427    167   1715 1
   428    167   1733 1
   429    168   1656 1
   430    168   1674 1
   431    168   1716 1
   432    168   1734 1
   433    169    595 1
   434    170    596 1
   435    171    597 1
   436    172    598 1
   437    173    601 1
   438    174    602 1
   439    175    603 1
   440    176    604 1
   441    177    605 1
   442    178    606 1
   443    179    607 1
   444    180    608 1
   445    181    611 1
   446    182    612 1
   447    183    613 1
   448    184    614 1
   449    185    615 1
   450    186    616 1
   451    187    619 1
   452    188    620 1
   453    189    621 1
   454    190    622 1
   455    191    623 1
   456    192    624 1
   457    193    641 1
   458    194    642 1
   459    195    645 1
   460    196    646 1
   461    197    647 1
   462    198    648 1
   463    199    649 1
   464    200    650 1
   465    201    651 1
   466    202    652 1
   467    203    655 1
   468    204    656 1
   469    205    658 1
   470    206    660 1
   471    207    661 1
   472    208    663 1
   473    209    666 1
   474    210    668 1
   475    211    669 1
   476    212    671 1
   477    213    803 1
   478    214    804 1
   479    215    806 1
   480    216    808 1
   481    217    809 1
   482    218    811 1
   483    219    815 1
   484    220    816 1
   485    221    817 1
   486    222    820 1
   487    223    821 1
   488    224    822 1
   489    225    833 1
   490    226    835 1
   491    227    837 1
   492    228    838 1
   493    229    840 1
   494    230    842 1
   495    231    843 1
   496    232    844 1
   497    233    845 1
   498    234    846 1
   499    235    847 1
   500    236    848 1
   501    237    849 1
   502    238    850 1
   503    239    851 1
   504    240    852 1
   505    241    984 1
   506    242    986 1
   507    243    987 1
   508    244    989 1
   509    245    991 1
   510    246    992 1
   511    247    993 1
   512    248    994 1
   513    249    995 1
   514    250    998 1
   515    251    999 1
   516    252   1000 1
   517    253   1013 1
   518    254   1015 1
   519    255   1017 1
   520    256   1018 1
   521    257   1020 1
   522    258   1022 1
   523    259   1023 1
   524    260   1024 1
   525    261   1025 1
   526    262   1026 1
   527    263   1027 1
   528    264   1028 1
   529    265   1029 1
   530    266   1030 1
   531    267   1031 1
   532    268   1032 1
   533    269   1241 1
   534    270   1242 1
   535    271   1243 1
   536    272   1244 1
   537    273   1245 1
   538    274   1246 1
   539    275   1247 1
   540    276   1248 1
   541    277   1251 1
   542    278   1252 1
   543    279   1253 1
   544    280   1254 1
   545    281   1257 1
   546    282   1258 1
   547    283   1259 1
   548    284   1260 1
   549    285   1261 1
   550    286   1262 1
   551    287   1265 1
   552    288   1266 1
   553    289   1267 1
   554    290   1268 1
   555    291   1269 1
   556    292   1270 1
   557    293   1289 1
   558    294   1290 1
   559    295   1291 1
   560    296   1292 1
   561    297   1295 1
   562    298   1296 1
   563    299   1297 1
   564    300   1298 1
   565    301   1301 1
   566    302   1302 1
   567    303   1303 1
   568    304   1304 1
   569    305   1306 1
   570    306   1308 1
   571    307   1309 1
   572    308   1311 1
   573    309   1314 1
   574    310   1316 1
   575    311   1317 1
   576    312   1319 1
   577    313   1753 1
   578    314   1754 1
   579    315   1755 1
   580    316   1756 1
   581    317   1757 1
   582    318   1758 1
   583    319   1759 1
   584    320   1760 1
   585    321   1761 1
   586    322   1762 1
   587    323   1763 1
   588    324   1764 1
   589    325   1765 1
   590    326   1766 1
   591    327   1767 1
   592    328   1768 1
   593    329   1769 1
   594    330   1770 1
   595    331   1771 1
   596    332   1772 1
   597    333   1773 1
   598    334   1774 1
   599    335   1775 1
   600    336   1776 1
   601    337   1777 1
   602    338   1778 1
   603    339   1779 1
   604    340   1780 1
   605    341   1781 1
   606    342   1782 1
   607    343   1783 1
   608    344   1784 1
   609    345   1785 1
   610    346   1786 1
   611    347   1787 1
   612    348   1788 1
   613    349   1789 1
   614    350   1790 1
   615    351   1791 1
   616    352   1792 1
   617    353   1793 1
   618    354   1794 1
   619    355   1795 1
   620    356   1796 1
   621    357   1797 1
   622    358   1798 1
   623    359   1799 1
   624    360   1800 1
   625    361   1801 1
   626    362   1802 1
   627    363   1803 1
   628    364   1804 1
   629    365   1805 1
   630    366   1806 1
   631    367   1807 1
   632    368   1808 1
   633    369   1809 1
   634    370   1810 1
   635    371   1811 1
   636    372   1812 1
   637    373   1813 1
   638    374   1814 1
   639    375   1815 1
   640    376   1816 1
   641    377   1817 1
   642    378   1818 1
   643    379   1819 1
   644    380   1820 1
   645    381   1821 1
   646    382   1822 1
   647    383   1823 1
   648    384   1824 1
   649    385    481 1
   650    385   1417 1
   651    386    482 1
   652    386   1321 1
   653    386   1418 1
   654    387    483 1
   655    387   1419 1
   656    388    484 1
   657    388   1322 1
   658    388   1420 1
   659    389    485 1
   660    389   1323 1
   661    390    486 1
   662    391    487 1
   663    391   1324 1
   664    391   1421 1
   665    392    488 1
   666    392   1422 1
   667    393    489 1
   668    394    490 1
   669    394   1325 1
   670    395    491 1
   671    395   1427 1
   672    396    492 1
   673    396   1326 1
   674    396   1428 1
   675    397    493 1
   676    397   1327 1
   677    397   1423 1
   678    398    494 1
   679    398   1424 1
   680    399    495 1
   681    399   1328 1
   682    399   1425 1
   683    400    496 1
   684    400   1426 1
   685    401    497 1
   686    401   1445 1
   687    402    498 1
   688    403    499 1
   689    403   1329 1
   690    403   1446 1
   691    404    500 1
   692    404   1330 1
   693    405    501 1
   694    405   1331 1
   695    406    502 1
   696    406   1332 1
   697    406   1447 1
   698    407    503 1
   699    408    504 1
   700    408   1448 1
   701    409    505 1
   702    409   1333 1
   703    410    506 1
   704    410   1334 1
   705    410   1443 1
   706    411    507 1
   707    411   1335 1
   708    412    508 1
   709    412   1336 1
   710    412   1444 1
   711    413    509 1
   712    413   1337 1
   713    413   1441 1
   714    414    510 1
   715    414   1338 1
   716    415    511 1
   717    415   1339 1
   718    415   1442 1
   719    416    512 1
   720    416   1340 1
   721    417    513 1
   722    417   1437 1
   723    418    514 1
   724    418   1438 1
   725    419    515 1
   726    419   1341 1
   727    419   1439 1
   728    420    516 1
   729    420   1342 1
   730    420   1440 1
   731    421    517 1
   732    421   1343 1
   733    422    518 1
   734    422   1344 1
   735    423    519 1
   736    423   1345 1
   737    423   1435 1
   738    424    520 1
   739    424   1346 1
   740    424   1436 1
   741    425    521 1
   742    425   1429 1
   743    426    522 1
   744    426   1430 1
   745    427    523 1
   746    427   1347 1
   747    427   1431 1
   748    428    524 1
   749    428   1348 1
   750    428   1432 1
   751    429    525 1
   752    429   1349 1
   753    429   1433 1
   754    430    526 1
   755    430   1350 1
   756    430   1434 1
   757    431    527 1
   758    431   1351 1
   759    432    528 1
   760    432   1352 1
   761    433    529 1
   762    433   1385 1
   763    434    530 1
   764    435    531 1
   765    435   1353 1
   766    435   1386 1
   767    436    532 1
   768    436   1354 1
   769    437    533 1
   770    437   1355 1
   771    438    534 1
   772    438   1356 1
   773    438   1387 1
   774    439    535 1
   775    439   1357 1
   776    440    536 1
   777    440   1358 1
   778    440   1388 1
   779    441    537 1
   780    442    538 1
   781    442   1391 1
   782    443    539 1
   783    443   1359 1
   784    444    540 1
   785    444   1360 1
   786    444   1392 1
   787    445    541 1
   788    445   1361 1
   789    445   1389 1
   790    446    542 1
   791    446   1362 1
   792    447    543 1
   793    447   1363 1
   794    447   1390 1
   795    448    544 1
   796    448   1364 1
   797    449    545 1
   798    449   1365 1
   799    449   1411 1
   800    450    546 1
   801    450   1366 1
   802    450   1412 1
   803    451    547 1
   804    451   1413 1
   805    452    548 1
   806    452   1414 1
   807    453    549 1
   808    453   1367 1
   809    454    550 1
   810    454   1368 1
   811    455    551 1
   812    455   1369 1
   813    455   1415 1
   814    456    552 1
   815    456   1370 1
   816    456   1416 1
   817    457    553 1
   818    457   1371 1
   819    458    554 1
   820    458   1372 1
   821    459    555 1
   822    459   1373 1
   823    459   1409 1
   824    460    556 1
   825    460   1374 1
   826    460   1410 1
   827    461    557 1
   828    461   1405 1
   829    462    558 1
   830    462   1406 1
   831    463    559 1
   832    463   1375 1
   833    463   1407 1
   834    464    560 1
   835    464   1376 1
   836    464   1408 1
   837    465    561 1
   838    466    562 1
   839    466   1377 1
   840    467    563 1
   841    467   1403 1
   842    468    564 1
   843    468   1378 1
   844    468   1404 1
   845    469    565 1
   846    469   1379 1
   847    469   1401 1
   848    470    566 1
   849    470   1402 1
   850    471    567 1
   851    471   1380 1
   852    472    568 1
   853    473    569 1
   854    473   1393 1
   855    474    570 1
   856    474   1381 1
   857    474   1394 1
   858    475    571 1
   859    475   1395 1
   860    476    572 1
   861    476   1382 1
   862    476   1396 1
   863    477    573 1
   864    477   1383 1
   865    477   1397 1
   866    478    574 1
   867    478   1398 1
   868    479    575 1
   869    479   1384 1
   870    479   1399 1
   871    480    576 1
   872    480   1400 1
   873    481    577 1
   874    481    621 1
   875    482    578 1
   876    482    622 1
   877    483    579 1
   878    483    623 1
   879    484    580 1
   880    484    624 1
   881    485    581 1
   882    485    609 1
   883    486    582 1
   884    486    610 1
   885    487    583 1
   886    487    611 1
   887    488    584 1
   888    488    612 1
   889    489    585 1
   890    489    617 1
   891    490    586 1
   892    490    618 1
   893    491    587 1
   894    491    619 1
   895    492    588 1
   896    492    620 1
   897    493    589 1
   898    493    613 1
   899    494    590 1
   900    494    614 1
   901    495    591 1
   902    495    615 1
   903    496    592 1
   904    496    616 1
   905    497    589 1
   906    497    593 1
   907    498    590 1
   908    498    594 1
   909    499    591 1
   910    499    595 1
   911    500    592 1
   912    500    596 1
   913    501    577 1
   914    501    597 1
   915    502    578 1
   916    502    598 1
   917    503    579 1
   918    503    599 1
   919    504    580 1
   920    504    600 1
   921    505    585 1
   922    505    601 1
   923    506    586 1
   924    506    602 1
   925    507    587 1
   926    507    603 1
   927    508    588 1
   928    508    604 1
   929    509    581 1
   930    509    605 1
   931    510    582 1
   932    510    606 1
   933    511    583 1
   934    511    607 1
   935    512    584 1
   936    512    608 1
   937    513    605 1
   938    513    609 1
   939    514    606 1
   940    514    610 1
   941    515    607 1
   942    515    611 1
   943    516    608 1
   944    516    612 1
   945    517    593 1
   946    517    613 1
   947    518    594 1
   948    518    614 1
   949    519    595 1
   950    519    615 1
   951    520    596 1
   952    520    616 1
   953    521    601 1
   954    521    617 1
   955    522    602 1
   956    522    618 1
   957    523    603 1
   958    523    619 1
   959    524    604 1
   960    524    620 1
   961    525    597 1
   962    525    621 1
   963    526    598 1
   964    526    622 1
   965    527    599 1
   966    527    623 1
   967    528    600 1
   968    528    624 1
   969    529    625 1
   970    529    669 1
   971    530    626 1
   972    530    670 1
   973    531    627 1
   974    531    671 1
   975    532    628 1
   976    532    672 1
   977    533    629 1
   978    533    657 1
   979    534    630 1
   980    534    658 1
   981    535    631 1
   982    535    659 1
   983    536    632 1
   984    536    660 1
   985    537    633 1
   986    537    665 1
   987    538    634 1
   988    538    666 1
   989    539    635 1
   990    539    667 1
   991    540    636 1
   992    540    668 1
   993    541    637 1
   994    541    661 1
   995    542    638 1
   996    542    662 1
   997    543    639 1
   998    543    663 1
   999    544    640 1
  1000    544    664 1
  1001    545    637 1
  1002    545    641 1
  1003    546    638 1
  1004    546    642 1
  1005    547    639 1
  1006    547    643 1
  1007    548    640 1
  1008    548    644 1
  1009    549    625 1
  1010    549    645 1
  1011    550    626 1
  1012    550    646 1
  1013    551    627 1
  1014    551    647 1
  1015    552    628 1
  1016    552    648 1
  1017    553    633 1
  1018    553    649 1
  1019    554    634 1
  1020    554    650 1
  1021    555    635 1
  1022    555    651 1
  1023    556    636 1
  1024    556    652 1
  1025    557    629 1
  1026    557    653 1
  1027    558    630 1
  1028    558    654 1
  1029    559    631 1
  1030    559    655 1
  1031    560    632 1
  1032    560    656 1
  1033    561    653 1
  1034    561    657 1
  1035    562    654 1
  1036    562    658 1
  1037    563    655 1
  1038    563    659 1
  1039    564    656 1
  1040    564    660 1
  1041    565    641 1
  1042    565    661 1
  1043    566    642 1
  1044    566    662 1
  1045    567    643 1
  1046    567    663 1
  1047    568    644 1
  1048    568    664 1
  1049    569    649 1
  1050    569    665 1
  1051    570    650 1
  1052    570    666 1
  1053    571    651 1
  1054    571    667 1
  1055    572    652 1
  1056    572    668 1
  1057    573    645 1
  1058    573    669 1
  1059    574    646 1
  1060    574    670 1
  1061    575    647 1
  1062    575    671 1
  1063    576    648 1
  1064    576    672 1
  1065    578   1753 1
  1066    580   1754 1
  1067    581   1755 1
  1068    583   1756 1
  1069    586   1757 1
  1070    588   1758 1
  1071    589   1759 1
  1072    591   1760 1
  1073    627   1761 1
  1074    628   1762 1
  1075    629   1763 1
  1076    630   1764 1
  1077    631   1765 1
  1078    632   1766 1
  1079    635   1767 1
  1080    636   1768 1
  1081    637   1769 1
  1082    638   1770 1
  1083    639   1771 1
  1084    640   1772 1
  1085    673    733 1
  1086    673   1449 1
  1087    673   1515 1
  1088    674    734 1
  1089    674   1450 1
  1090    675    735 1
  1091    675   1451 1
  1092    676    736 1
  1093    676   1452 1
  1094    676   1516 1
  1095    677    737 1
  1096    677   1453 1
  1097    677   1517 1
  1098    678    738 1
  1099    678   1454 1
  1100    679    739 1
  1101    679   1455 1
  1102    680    740 1
  1103    680   1456 1
  1104    680   1519 1
  1105    681    741 1
  1106    681   1457 1
  1107    681   1520 1
  1108    682    742 1
  1109    682   1458 1
  1110    682   1518 1
  1111    683    743 1
  1112    683   1459 1
  1113    683   1535 1
  1114    684    744 1
  1115    684   1460 1
  1116    684   1536 1
  1117    685    745 1
  1118    685   1531 1
  1119    686    746 1
  1120    686   1461 1
  1121    686   1532 1
  1122    687    747 1
  1123    687   1533 1
  1124    688    748 1
  1125    688   1462 1
  1126    688   1534 1
  1127    689    749 1
  1128    689   1463 1
  1129    689   1527 1
  1130    690    750 1
  1131    690   1528 1
  1132    691    751 1
  1133    691   1464 1
  1134    691   1529 1
  1135    692    752 1
  1136    692   1530 1
  1137    693    753 1
  1138    693   1525 1
  1139    694    754 1
  1140    695    755 1
  1141    695   1465 1
  1142    695   1526 1
  1143    696    756 1
  1144    696   1466 1
  1145    697    757 1
  1146    697   1467 1
  1147    697   1524 1
  1148    698    758 1
  1149    699    759 1
  1150    699   1521 1
  1151    700    760 1
  1152    700   1468 1
  1153    701    761 1
  1154    701   1469 1
  1155    701   1522 1
  1156    702    762 1
  1157    702   1470 1
  1158    702   1523 1
  1159    703    763 1
  1160    703   1493 1
  1161    704    764 1
  1162    704   1494 1
  1163    705    765 1
  1164    705   1471 1
  1165    705   1495 1
  1166    706    766 1
  1167    706   1472 1
  1168    706   1496 1
  1169    707    767 1
  1170    707   1473 1
  1171    707   1497 1
  1172    708    768 1
  1173    708   1499 1
  1174    709    769 1
  1175    709   1500 1
  1176    710    770 1
  1177    710   1474 1
  1178    710   1501 1
  1179    711    771 1
  1180    711   1475 1
  1181    711   1502 1
  1182    712    772 1
  1183    712   1476 1
  1184    712   1498 1
  1185    713    773 1
  1186    713   1477 1
  1187    713   1512 1
  1188    714    774 1
  1189    715    775 1
  1190    715   1478 1
  1191    716    776 1
  1192    716   1513 1
  1193    717    777 1
  1194    717   1479 1
  1195    717   1514 1
  1196    718    778 1
  1197    718   1480 1
  1198    719    779 1
  1199    720    780 1
  1200    720   1481 1
  1201    720   1510 1
  1202    721    781 1
  1203    721   1511 1
  1204    722    782 1
  1205    722   1482 1
  1206    722   1509 1
  1207    723    783 1
  1208    723   1483 1
  1209    723   1508 1
  1210    724    784 1
  1211    724   1484 1
  1212    724   1507 1
  1213    725    785 1
  1214    725   1485 1
  1215    725   1503 1
  1216    726    786 1
  1217    726   1486 1
  1218    727    787 1
  1219    727   1487 1
  1220    727   1504 1
  1221    728    788 1
  1222    728   1488 1
  1223    729    789 1
  1224    729   1489 1
  1225    730    790 1
  1226    730   1490 1
  1227    730   1505 1
  1228    731    791 1
  1229    731   1491 1
  1230    732    792 1
  1231    732   1492 1
  1232    732   1506 1
  1233    733    793 1
  1234    733    822 1
  1235    734    794 1
  1236    734    813 1
  1237    735    795 1
  1238    735    814 1
  1239    736    796 1
  1240    736    815 1
  1241    737    797 1
  1242    737    816 1
  1243    738    798 1
  1244    738    818 1
  1245    739    799 1
  1246    739    819 1
  1247    740    800 1
  1248    740    820 1
  1249    741    801 1
  1250    741    821 1
  1251    742    802 1
  1252    742    817 1
  1253    743    802 1
  1254    743    803 1
  1255    744    793 1
  1256    744    804 1
  1257    745    798 1
  1258    745    805 1
  1259    746    799 1
  1260    746    806 1
  1261    747    800 1
  1262    747    807 1
  1263    748    801 1
  1264    748    808 1
  1265    749    794 1
  1266    749    809 1
  1267    750    795 1
  1268    750    810 1
  1269    751    796 1
  1270    751    811 1
  1271    752    797 1
  1272    752    812 1
  1273    753    809 1
  1274    753    813 1
  1275    754    810 1
  1276    754    814 1
  1277    755    811 1
  1278    755    815 1
  1279    756    812 1
  1280    756    816 1
  1281    757    803 1
  1282    757    817 1
  1283    758    805 1
  1284    758    818 1
  1285    759    806 1
  1286    759    819 1
  1287    760    807 1
  1288    760    820 1
  1289    761    808 1
  1290    761    821 1
  1291    762    804 1
  1292    762    822 1
  1293    763    823 1
  1294    763    849 1
  1295    764    824 1
  1296    764    850 1
  1297    765    825 1
  1298    765    851 1
  1299    766    826 1
  1300    766    852 1
  1301    767    827 1
  1302    767    843 1
  1303    768    828 1
  1304    768    845 1
  1305    769    829 1
  1306    769    846 1
  1307    770    830 1
  1308    770    847 1
  1309    771    831 1
  1310    771    848 1
  1311    772    832 1
  1312    772    844 1
  1313    773    832 1
  1314    773    833 1
  1315    774    823 1
  1316    774    834 1
  1317    775    824 1
  1318    775    835 1
  1319    776    825 1
  1320    776    836 1
  1321    777    826 1
  1322    777    837 1
  1323    778    828 1
  1324    778    838 1
  1325    779    829 1
  1326    779    839 1
  1327    780    830 1
  1328    780    840 1
  1329    781    831 1
  1330    781    841 1
  1331    782    827 1
  1332    782    842 1
  1333    783    842 1
  1334    783    843 1
  1335    784    833 1
  1336    784    844 1
  1337    785    838 1
  1338    785    845 1
  1339    786    839 1
  1340    786    846 1
  1341    787    840 1
  1342    787    847 1
  1343    788    841 1
  1344    788    848 1
  1345    789    834 1
  1346    789    849 1
  1347    790    835 1
  1348    790    850 1
  1349    791    836 1
  1350    791    851 1
  1351    792    837 1
  1352    792    852 1
  1353    793   1773 1
  1354    794   1774 1
  1355    795   1775 1
  1356    796   1776 1
  1357    797   1777 1
  1358    798   1778 1
  1359    799   1779 1
  1360    800   1780 1
  1361    801   1781 1
  1362    802   1782 1
  1363    825   1783 1
  1364    826   1784 1
  1365    827   1785 1
  1366    830   1786 1
  1367    831   1787 1
  1368    832   1788 1
  1369    853    913 1
  1370    853   1537 1
  1371    853   1603 1
  1372    854    914 1
  1373    854   1538 1
  1374    854   1604 1
  1375    855    915 1
  1376    855   1539 1
  1377    856    916 1
  1378    856   1540 1
  1379    857    917 1
  1380    857   1541 1
  1381    857   1605 1
  1382    858    918 1
  1383    858   1542 1
  1384    858   1608 1
  1385    859    919 1
  1386    859   1543 1
  1387    859   1606 1
  1388    860    920 1
  1389    860   1544 1
  1390    860   1607 1
  1391    861    921 1
  1392    861   1545 1
  1393    862    922 1
  1394    862   1546 1
  1395    863    923 1
  1396    863   1617 1
  1397    864    924 1
  1398    864   1547 1
  1399    864   1618 1
  1400    865    925 1
  1401    865   1619 1
  1402    866    926 1
  1403    866   1548 1
  1404    866   1620 1
  1405    867    927 1
  1406    867   1549 1
  1407    867   1621 1
  1408    868    928 1
  1409    868   1622 1
  1410    869    929 1
  1411    869   1550 1
  1412    869   1623 1
  1413    870    930 1
  1414    870   1624 1
  1415    871    931 1
  1416    871   1551 1
  1417    871   1616 1
  1418    872    932 1
  1419    872   1552 1
  1420    872   1615 1
  1421    873    933 1
  1422    873   1553 1
  1423    873   1614 1
  1424    874    934 1
  1425    874   1554 1
  1426    875    935 1
  1427    875   1555 1
  1428    875   1612 1
  1429    876    936 1
  1430    877    937 1
  1431    877   1613 1
  1432    878    938 1
  1433    878   1556 1
  1434    878   1609 1
  1435    879    939 1
  1436    879   1557 1
  1437    879   1610 1
  1438    880    940 1
  1439    880   1558 1
  1440    881    941 1
  1441    881   1611 1
  1442    882    942 1
  1443    883    943 1
  1444    883   1559 1
  1445    883   1581 1
  1446    884    944 1
  1447    884   1560 1
  1448    884   1582 1
  1449    885    945 1
  1450    885   1561 1
  1451    885   1583 1
  1452    886    946 1
  1453    886   1584 1
  1454    887    947 1
  1455    887   1585 1
  1456    888    948 1
  1457    888   1562 1
  1458    888   1590 1
  1459    889    949 1
  1460    889   1563 1
  1461    889   1586 1
  1462    890    950 1
  1463    890   1564 1
  1464    890   1587 1
  1465    891    951 1
  1466    891   1588 1
  1467    892    952 1
  1468    892   1589 1
  1469    893    953 1
  1470    893   1565 1
  1471    893   1600 1
  1472    894    954 1
  1473    894   1601 1
  1474    895    955 1
  1475    895   1566 1
  1476    896    956 1
  1477    897    957 1
  1478    897   1567 1
  1479    897   1602 1
  1480    898    958 1
  1481    898   1568 1
  1482    898   1599 1
  1483    899    959 1
  1484    899   1597 1
  1485    900    960 1
  1486    900   1569 1
  1487    900   1598 1
  1488    901    961 1
  1489    902    962 1
  1490    902   1570 1
  1491    903    963 1
  1492    903   1571 1
  1493    904    964 1
  1494    904   1572 1
  1495    904   1595 1
  1496    905    965 1
  1497    905   1573 1
  1498    906    966 1
  1499    906   1574 1
  1500    906   1596 1
  1501    907    967 1
  1502    907   1575 1
  1503    907   1593 1
  1504    908    968 1
  1505    908   1576 1
  1506    909    969 1
  1507    909   1577 1
  1508    909   1594 1
  1509    910    970 1
  1510    910   1578 1
  1511    911    971 1
  1512    911   1579 1
  1513    911   1591 1
  1514    912    972 1
  1515    912   1580 1
  1516    912   1592 1
  1517    913    973 1
  1518    913    999 1
  1519    914    974 1
  1520    914   1000 1
  1521    915    975 1
  1522    915   1001 1
  1523    916    976 1
  1524    916   1002 1
  1525    917    977 1
  1526    917    993 1
  1527    918    978 1
  1528    918    998 1
  1529    919    979 1
  1530    919    994 1
  1531    920    980 1
  1532    920    995 1
  1533    921    981 1
  1534    921    996 1
  1535    922    982 1
  1536    922    997 1
  1537    923    979 1
  1538    923    983 1
  1539    924    980 1
  1540    924    984 1
  1541    925    981 1
  1542    925    985 1
  1543    926    982 1
  1544    926    986 1
  1545    927    973 1
  1546    927    987 1
  1547    928    974 1
  1548    928    988 1
  1549    929    975 1
  1550    929    989 1
  1551    930    976 1
  1552    930    990 1
  1553    931    978 1
  1554    931    991 1
  1555    932    977 1
  1556    932    992 1
  1557    933    992 1
  1558    933    993 1
  1559    934    983 1
  1560    934    994 1
  1561    935    984 1
  1562    935    995 1
  1563    936    985 1
  1564    936    996 1
  1565    937    986 1
  1566    937    997 1
  1567    938    991 1
  1568    938    998 1
  1569    939    987 1
  1570    939    999 1
  1571    940    988 1
  1572    940   1000 1
  1573    941    989 1
  1574    941   1001 1
  1575    942    990 1
  1576    942   1002 1
  1577    943   1003 1
  1578    943   1032 1
  1579    944   1004 1
  1580    944   1023 1
  1581    945   1005 1
  1582    945   1024 1
  1583    946   1006 1
  1584    946   1025 1
  1585    947   1007 1
  1586    947   1026 1
  1587    948   1008 1
  1588    948   1031 1
  1589    949   1009 1
  1590    949   1027 1
  1591    950   1010 1
  1592    950   1028 1
  1593    951   1011 1
  1594    951   1029 1
  1595    952   1012 1
  1596    952   1030 1
  1597    953   1009 1
  1598    953   1013 1
  1599    954   1010 1
  1600    954   1014 1
  1601    955   1011 1
  1602    955   1015 1
  1603    956   1012 1
  1604    956   1016 1
  1605    957   1003 1
  1606    957   1017 1
  1607    958   1008 1
  1608    958   1018 1
  1609    959   1004 1
  1610    959   1019 1
  1611    960   1005 1
  1612    960   1020 1
  1613    961   1006 1
  1614    961   1021 1
  1615    962   1007 1
  1616    962   1022 1
  1617    963   1019 1
  1618    963   1023 1
  1619    964   1020 1
  1620    964   1024 1
  1621    965   1021 1
  1622    965   1025 1
  1623    966   1022 1
  1624    966   1026 1
  1625    967   1013 1
  1626    967   1027 1
  1627    968   1014 1
  1628    968   1028 1
  1629    969   1015 1
  1630    969   1029 1
  1631    970   1016 1
  1632    970   1030 1
  1633    971   1018 1
  1634    971   1031 1
  1635    972   1017 1
  1636    972   1032 1
  1637    973   1789 1
  1638    974   1790 1
  1639    975   1791 1
  1640    976   1792 1
  1641    977   1793 1
  1642    978   1794 1
  1643    979   1795 1
  1644    980   1796 1
  1645    981   1797 1
  1646    982   1798 1
  1647   1003   1799 1
  1648   1004   1800 1
  1649   1005   1801 1
  1650   1008   1802 1
  1651   1009   1803 1
  1652   1010   1804 1
  1653   1033   1129 1
  1654   1033   1721 1
  1655   1034   1130 1
  1656   1034   1625 1
  1657   1034   1722 1
  1658   1035   1131 1
  1659   1036   1132 1
  1660   1036   1626 1
  1661   1037   1133 1
  1662   1037   1627 1
  1663   1037   1723 1
  1664   1038   1134 1
  1665   1038   1724 1
  1666   1039   1135 1
  1667   1039   1628 1
  1668   1039   1725 1
  1669   1040   1136 1
  1670   1040   1726 1
  1671   1041   1137 1
  1672   1041   1729 1
  1673   1042   1138 1
  1674   1042   1629 1
  1675   1042   1730 1
  1676   1043   1139 1
  1677   1043   1731 1
  1678   1044   1140 1
  1679   1044   1630 1
  1680   1044   1732 1
  1681   1045   1141 1
  1682   1045   1631 1
  1683   1045   1727 1
  1684   1046   1142 1
  1685   1046   1728 1
  1686   1047   1143 1
  1687   1047   1632 1
  1688   1048   1144 1
  1689   1049   1145 1
  1690   1049   1633 1
  1691   1049   1749 1
  1692   1050   1146 1
  1693   1050   1634 1
  1694   1051   1147 1
  1695   1051   1635 1
  1696   1051   1750 1
  1697   1052   1148 1
  1698   1052   1636 1
  1699   1053   1149 1
  1700   1053   1637 1
  1701   1054   1150 1
  1702   1054   1638 1
  1703   1054   1751 1
  1704   1055   1151 1
  1705   1055   1639 1
  1706   1056   1152 1
  1707   1056   1640 1
  1708   1056   1752 1
  1709   1057   1153 1
  1710   1058   1154 1
  1711   1058   1747 1
  1712   1059   1155 1
  1713   1059   1641 1
  1714   1060   1156 1
  1715   1060   1642 1
  1716   1060   1748 1
  1717   1061   1157 1
  1718   1061   1643 1
  1719   1061   1745 1
  1720   1062   1158 1
  1721   1062   1644 1
  1722   1063   1159 1
  1723   1063   1746 1
  1724   1064   1160 1
  1725   1065   1161 1
  1726   1065   1645 1
  1727   1065   1743 1
  1728   1066   1162 1
  1729   1066   1646 1
  1730   1066   1744 1
  1731   1067   1163 1
  1732   1067   1647 1
  1733   1068   1164 1
  1734   1068   1648 1
  1735   1069   1165 1
  1736   1069   1649 1
  1737   1069   1739 1
  1738   1070   1166 1
  1739   1070   1650 1
  1740   1070   1740 1
  1741   1071   1167 1
  1742   1071   1741 1
  1743   1072   1168 1
  1744   1072   1742 1
  1745   1073   1169 1
  1746   1073   1651 1
  1747   1074   1170 1
  1748   1074   1652 1
  1749   1075   1171 1
  1750   1075   1653 1
  1751   1075   1733 1
  1752   1076   1172 1
  1753   1076   1654 1
  1754   1076   1734 1
  1755   1077   1173 1
  1756   1077   1655 1
  1757   1077   1735 1
  1758   1078   1174 1
  1759   1078   1656 1
  1760   1078   1736 1
  1761   1079   1175 1
  1762   1079   1737 1
  1763   1080   1176 1
  1764   1080   1738 1
  1765   1081   1177 1
  1766   1081   1657 1
  1767   1081   1689 1
  1768   1082   1178 1
  1769   1082   1658 1
  1770   1083   1179 1
  1771   1083   1659 1
  1772   1083   1690 1
  1773   1084   1180 1
  1774   1084   1660 1
  1775   1085   1181 1
  1776   1085   1661 1
  1777   1086   1182 1
  1778   1086   1662 1
  1779   1086   1691 1
  1780   1087   1183 1
  1781   1088   1184 1
  1782   1088   1692 1
  1783   1089   1185 1
  1784   1089   1663 1
  1785   1090   1186 1
  1786   1090   1664 1
  1787   1090   1695 1
  1788   1091   1187 1
  1789   1091   1665 1
  1790   1092   1188 1
  1791   1092   1666 1
  1792   1092   1696 1
  1793   1093   1189 1
  1794   1093   1667 1
  1795   1093   1693 1
  1796   1094   1190 1
  1797   1094   1668 1
  1798   1095   1191 1
  1799   1095   1694 1
  1800   1096   1192 1
  1801   1097   1193 1
  1802   1097   1669 1
  1803   1097   1715 1
  1804   1098   1194 1
  1805   1098   1670 1
  1806   1098   1716 1
  1807   1099   1195 1
  1808   1099   1671 1
  1809   1100   1196 1
  1810   1100   1672 1
  1811   1101   1197 1
  1812   1101   1717 1
  1813   1102   1198 1
  1814   1102   1718 1
  1815   1103   1199 1
  1816   1103   1673 1
  1817   1103   1719 1
  1818   1104   1200 1
  1819   1104   1674 1
  1820   1104   1720 1
  1821   1105   1201 1
  1822   1105   1675 1
  1823   1105   1711 1
  1824   1106   1202 1
  1825   1106   1676 1
  1826   1106   1712 1
  1827   1107   1203 1
  1828   1107   1713 1
  1829   1108   1204 1
  1830   1108   1714 1
  1831   1109   1205 1
  1832   1109   1677 1
  1833   1109   1709 1
  1834   1110   1206 1
  1835   1110   1678 1
  1836   1110   1710 1
  1837   1111   1207 1
  1838   1111   1679 1
  1839   1112   1208 1
  1840   1112   1680 1
  1841   1113   1209 1
  1842   1113   1705 1
  1843   1114   1210 1
  1844   1114   1681 1
  1845   1114   1706 1
  1846   1115   1211 1
  1847   1115   1707 1
  1848   1116   1212 1
  1849   1116   1682 1
  1850   1116   1708 1
  1851   1117   1213 1
  1852   1117   1683 1
  1853   1117   1701 1
  1854   1118   1214 1
  1855   1118   1702 1
  1856   1119   1215 1
  1857   1119   1684 1
  1858   1119   1703 1
  1859   1120   1216 1
  1860   1120   1704 1
  1861   1121   1217 1
  1862   1121   1697 1
  1863   1122   1218 1
  1864   1122   1685 1
  1865   1122   1698 1
  1866   1123   1219 1
  1867   1124   1220 1
  1868   1124   1686 1
  1869   1125   1221 1
  1870   1125   1687 1
  1871   1126   1222 1
  1872   1127   1223 1
  1873   1127   1688 1
  1874   1127   1699 1
  1875   1128   1224 1
  1876   1128   1700 1
  1877   1129   1225 1
  1878   1129   1269 1
  1879   1130   1226 1
  1880   1130   1270 1
  1881   1131   1227 1
  1882   1131   1271 1
  1883   1132   1228 1
  1884   1132   1272 1
  1885   1133   1229 1
  1886   1133   1257 1
  1887   1134   1230 1
  1888   1134   1258 1
  1889   1135   1231 1
  1890   1135   1259 1
  1891   1136   1232 1
  1892   1136   1260 1
  1893   1137   1233 1
  1894   1137   1265 1
  1895   1138   1234 1
  1896   1138   1266 1
  1897   1139   1235 1
  1898   1139   1267 1
  1899   1140   1236 1
  1900   1140   1268 1
  1901   1141   1237 1
  1902   1141   1261 1
  1903   1142   1238 1
  1904   1142   1262 1
  1905   1143   1239 1
  1906   1143   1263 1
  1907   1144   1240 1
  1908   1144   1264 1
  1909   1145   1237 1
  1910   1145   1241 1
  1911   1146   1238 1
  1912   1146   1242 1
  1913   1147   1239 1
  1914   1147   1243 1
  1915   1148   1240 1
  1916   1148   1244 1
  1917   1149   1225 1
  1918   1149   1245 1
  1919   1150   1226 1
  1920   1150   1246 1
  1921   1151   1227 1
  1922   1151   1247 1
  1923   1152   1228 1
  1924   1152   1248 1
  1925   1153   1233 1
  1926   1153   1249 1
  1927   1154   1234 1
  1928   1154   1250 1
  1929   1155   1235 1
  1930   1155   1251 1
  1931   1156   1236 1
  1932   1156   1252 1
  1933   1157   1229 1
  1934   1157   1253 1
  1935   1158   1230 1
  1936   1158   1254 1
  1937   1159   1231 1
  1938   1159   1255 1
  1939   1160   1232 1
  1940   1160   1256 1
  1941   1161   1253 1
  1942   1161   1257 1
  1943   1162   1254 1
  1944   1162   1258 1
  1945   1163   1255 1
  1946   1163   1259 1
  1947   1164   1256 1
  1948   1164   1260 1
  1949   1165   1241 1
  1950   1165   1261 1
  1951   1166   1242 1
  1952   1166   1262 1
  1953   1167   1243 1
  1954   1167   1263 1
  1955   1168   1244 1
  1956   1168   1264 1
  1957   1169   1249 1
  1958   1169   1265 1
  1959   1170   1250 1
  1960   1170   1266 1
  1961   1171   1251 1
  1962   1171   1267 1
  1963   1172   1252 1
  1964   1172   1268 1
  1965   1173   1245 1
  1966   1173   1269 1
  1967   1174   1246 1
  1968   1174   1270 1
  1969   1175   1247 1
  1970   1175   1271 1
  1971   1176   1248 1
  1972   1176   1272 1
  1973   1177   1273 1
  1974   1177   1317 1
  1975   1178   1274 1
  1976   1178   1318 1
  1977   1179   1275 1
  1978   1179   1319 1
  1979   1180   1276 1
  1980   1180   1320 1
  1981   1181   1277 1
  1982   1181   1305 1
  1983   1182   1278 1
  1984   1182   1306 1
  1985   1183   1279 1
  1986   1183   1307 1
  1987   1184   1280 1
  1988   1184   1308 1
  1989   1185   1281 1
  1990   1185   1313 1
  1991   1186   1282 1
  1992   1186   1314 1
  1993   1187   1283 1
  1994   1187   1315 1
  1995   1188   1284 1
  1996   1188   1316 1
  1997   1189   1285 1
  1998   1189   1309 1
  1999   1190   1286 1
  2000   1190   1310 1
  2001   1191   1287 1
  2002   1191   1311 1
  2003   1192   1288 1
  2004   1192   1312 1
  2005   1193   1285 1
  2006   1193   1289 1
  2007   1194   1286 1
  2008   1194   1290 1
  2009   1195   1287 1
  2010   1195   1291 1
  2011   1196   1288 1
  2012   1196   1292 1
  2013   1197   1273 1
  2014   1197   1293 1
  2015   1198   1274 1
  2016   1198   1294 1
  2017   1199   1275 1
  2018   1199   1295 1
  2019   1200   1276 1
  2020   1200   1296 1
  2021   1201   1281 1
  2022   1201   1297 1
  2023   1202   1282 1
  2024   1202   1298 1
  2025   1203   1283 1
  2026   1203   1299 1
  2027   1204   1284 1
  2028   1204   1300 1
  2029   1205   1277 1
  2030   1205   1301 1
  2031   1206   1278 1
  2032   1206   1302 1
  2033   1207   1279 1
  2034   1207   1303 1
  2035   1208   1280 1
  2036   1208   1304 1
  2037   1209   1301 1
  2038   1209   1305 1
  2039   1210   1302 1
  2040   1210   1306 1
  2041   1211   1303 1
  2042   1211   1307 1
  2043   1212   1304 1
  2044   1212   1308 1
  2045   1213   1289 1
  2046   1213   1309 1
  2047   1214   1290 1
  2048   1214   1310 1
  2049   1215   1291 1
  2050   1215   1311 1
  2051   1216   1292 1
  2052   1216   1312 1
  2053   1217   1297 1
  2054   1217   1313 1
  2055   1218   1298 1
  2056   1218   1314 1
  2057   1219   1299 1
  2058   1219   1315 1
  2059   1220   1300 1
  2060   1220   1316 1
  2061   1221   1293 1
  2062   1221   1317 1
  2063   1222   1294 1
  2064   1222   1318 1
  2065   1223   1295 1
  2066   1223   1319 1
  2067   1224   1296 1
  2068   1224   1320 1
  2069   1226   1805 1
  2070   1228   1806 1
  2071   1229   1807 1
  2072   1231   1808 1
  2073   1234   1809 1
  2074   1236   1810 1
  2075   1237   1811 1
  2076   1239   1812 1
  2077   1273   1813 1
  2078   1274   1814 1
  2079   1275   1815 1
  2080   1276   1816 1
  2081   1277   1817 1
  2082   1278   1818 1
  2083   1281   1819 1
  2084   1282   1820 1
  2085   1283   1821 1
  2086   1284   1822 1
  2087   1285   1823 1
  2088   1286   1824 1
