dobdc_zn2_paddlewheel_pillared_sql_bipy
AtomForge visual export

594645  0  0  0  0            999 V2000
   10.8618    0.1025    5.4466 Zn  0  0  0  0  0  0  0  0  0  0  0  0
   10.8618   22.0311    5.4466 Zn  0  0  0  0  0  0  0  0  0  0  0  0
   10.8618    0.1025   19.5466 Zn  0  0  0  0  0  0  0  0  0  0  0  0
   10.8618   22.0311   19.5466 Zn  0  0  0  0  0  0  0  0  0  0  0  0
   10.8618   11.0668    5.4466 Zn  0  0  0  0  0  0  0  0  0  0  0  0
   10.8618   11.0668   19.5466 Zn  0  0  0  0  0  0  0  0  0  0  0  0
   -0.1025    0.1025    5.4466 Zn  0  0  0  0  0  0  0  0  0  0  0  0
   -0.1025   22.0311    5.4466 Zn  0  0  0  0  0  0  0  0  0  0  0  0
   21.8261    0.1025    5.4466 Zn  0  0  0  0  0  0  0  0  0  0  0  0
   21.8261   22.0311    5.4466 Zn  0  0  0  0  0  0  0  0  0  0  0  0
   -0.1025    0.1025   19.5466 Zn  0  0  0  0  0  0  0  0  0  0  0  0
   -0.1025   22.0311   19.5466 Zn  0  0  0  0  0  0  0  0  0  0  0  0
   21.8261    0.1025   19.5466 Zn  0  0  0  0  0  0  0  0  0  0  0  0
   21.8261   22.0311   19.5466 Zn  0  0  0  0  0  0  0  0  0  0  0  0
   -0.1025   11.0668    5.4466 Zn  0  0  0  0  0  0  0  0  0  0  0  0
   21.8261   11.0668    5.4466 Zn  0  0  0  0  0  0  0  0  0  0  0  0
   -0.1025   11.0668   19.5466 Zn  0  0  0  0  0  0  0  0  0  0  0  0
   21.8261   11.0668   19.5466 Zn  0  0  0  0  0  0  0  0  0  0  0  0
   10.8682    0.0961    7.9976 Zn  0  0  0  0  0  0  0  0  0  0  0  0
   10.8682   22.0247    7.9976 Zn  0  0  0  0  0  0  0  0  0  0  0  0
   10.8682    0.0961   22.0976 Zn  0  0  0  0  0  0  0  0  0  0  0  0
   10.8682   22.0247   22.0976 Zn  0  0  0  0  0  0  0  0  0  0  0  0
   10.8682   11.0604    7.9976 Zn  0  0  0  0  0  0  0  0  0  0  0  0
   10.8682   11.0604   22.0976 Zn  0  0  0  0  0  0  0  0  0  0  0  0
   -0.0961    0.0961    7.9976 Zn  0  0  0  0  0  0  0  0  0  0  0  0
   -0.0961   22.0247    7.9976 Zn  0  0  0  0  0  0  0  0  0  0  0  0
   21.8325    0.0961    7.9976 Zn  0  0  0  0  0  0  0  0  0  0  0  0
   21.8325   22.0247    7.9976 Zn  0  0  0  0  0  0  0  0  0  0  0  0
   -0.0961    0.0961   22.0976 Zn  0  0  0  0  0  0  0  0  0  0  0  0
   -0.0961   22.0247   22.0976 Zn  0  0  0  0  0  0  0  0  0  0  0  0
   21.8325    0.0961   22.0976 Zn  0  0  0  0  0  0  0  0  0  0  0  0
   21.8325   22.0247   22.0976 Zn  0  0  0  0  0  0  0  0  0  0  0  0
   -0.0961   11.0604    7.9976 Zn  0  0  0  0  0  0  0  0  0  0  0  0
   21.8325   11.0604    7.9976 Zn  0  0  0  0  0  0  0  0  0  0  0  0
   -0.0961   11.0604   22.0976 Zn  0  0  0  0  0  0  0  0  0  0  0  0
   21.8325   11.0604   22.0976 Zn  0  0  0  0  0  0  0  0  0  0  0  0
    7.6546    0.1838    9.1348 H   0  0  0  0  0  0  0  0  0  0  0  0
    7.6546   22.1124    9.1348 H   0  0  0  0  0  0  0  0  0  0  0  0
    7.6546    0.1838   23.2348 H   0  0  0  0  0  0  0  0  0  0  0  0
    7.6546   22.1124   23.2348 H   0  0  0  0  0  0  0  0  0  0  0  0
    7.6546   11.1481    9.1348 H   0  0  0  0  0  0  0  0  0  0  0  0
    7.6546   11.1481   23.2348 H   0  0  0  0  0  0  0  0  0  0  0  0
   18.6189    0.1838    9.1348 H   0  0  0  0  0  0  0  0  0  0  0  0
   18.6189   22.1124    9.1348 H   0  0  0  0  0  0  0  0  0  0  0  0
   18.6189    0.1838   23.2348 H   0  0  0  0  0  0  0  0  0  0  0  0
   18.6189   22.1124   23.2348 H   0  0  0  0  0  0  0  0  0  0  0  0
   18.6189   11.1481    9.1348 H   0  0  0  0  0  0  0  0  0  0  0  0
   18.6189   11.1481   23.2348 H   0  0  0  0  0  0  0  0  0  0  0  0
    3.1233    0.0633    9.1391 H   0  0  0  0  0  0  0  0  0  0  0  0
    3.1233   21.9918    9.1391 H   0  0  0  0  0  0  0  0  0  0  0  0
    3.1233    0.0633   23.2391 H   0  0  0  0  0  0  0  0  0  0  0  0
    3.1233   21.9918   23.2391 H   0  0  0  0  0  0  0  0  0  0  0  0
    3.1233   11.0275    9.1391 H   0  0  0  0  0  0  0  0  0  0  0  0
    3.1233   11.0275   23.2391 H   0  0  0  0  0  0  0  0  0  0  0  0
   14.0876    0.0633    9.1391 H   0  0  0  0  0  0  0  0  0  0  0  0
   14.0876   21.9918    9.1391 H   0  0  0  0  0  0  0  0  0  0  0  0
   14.0876    0.0633   23.2391 H   0  0  0  0  0  0  0  0  0  0  0  0
   14.0876   21.9918   23.2391 H   0  0  0  0  0  0  0  0  0  0  0  0
   14.0876   11.0275    9.1391 H   0  0  0  0  0  0  0  0  0  0  0  0
   14.0876   11.0275   23.2391 H   0  0  0  0  0  0  0  0  0  0  0  0
    4.1410    0.1886    4.7230 H   0  0  0  0  0  0  0  0  0  0  0  0
    4.1410   22.1172    4.7230 H   0  0  0  0  0  0  0  0  0  0  0  0
    4.1410    0.1886   18.8230 H   0  0  0  0  0  0  0  0  0  0  0  0
    4.1410   22.1172   18.8230 H   0  0  0  0  0  0  0  0  0  0  0  0
    4.1410   11.1529    4.7230 H   0  0  0  0  0  0  0  0  0  0  0  0
    4.1410   11.1529   18.8230 H   0  0  0  0  0  0  0  0  0  0  0  0
   15.1052    0.1886    4.7230 H   0  0  0  0  0  0  0  0  0  0  0  0
   15.1052   22.1172    4.7230 H   0  0  0  0  0  0  0  0  0  0  0  0
   15.1052    0.1886   18.8230 H   0  0  0  0  0  0  0  0  0  0  0  0
   15.1052   22.1172   18.8230 H   0  0  0  0  0  0  0  0  0  0  0  0
   15.1052   11.1529    4.7230 H   0  0  0  0  0  0  0  0  0  0  0  0
   15.1052   11.1529   18.8230 H   0  0  0  0  0  0  0  0  0  0  0  0
    6.6171    0.1440    4.7187 H   0  0  0  0  0  0  0  0  0  0  0  0
    6.6171   22.0725    4.7187 H   0  0  0  0  0  0  0  0  0  0  0  0
    6.6171    0.1440   18.8187 H   0  0  0  0  0  0  0  0  0  0  0  0
    6.6171   22.0725   18.8187 H   0  0  0  0  0  0  0  0  0  0  0  0
    6.6171   11.1083    4.7187 H   0  0  0  0  0  0  0  0  0  0  0  0
    6.6171   11.1083   18.8187 H   0  0  0  0  0  0  0  0  0  0  0  0
   17.5814    0.1440    4.7187 H   0  0  0  0  0  0  0  0  0  0  0  0
   17.5814   22.0725    4.7187 H   0  0  0  0  0  0  0  0  0  0  0  0
   17.5814    0.1440   18.8187 H   0  0  0  0  0  0  0  0  0  0  0  0
   17.5814   22.0725   18.8187 H   0  0  0  0  0  0  0  0  0  0  0  0
   17.5814   11.1083    4.7187 H   0  0  0  0  0  0  0  0  0  0  0  0
   17.5814   11.1083   18.8187 H   0  0  0  0  0  0  0  0  0  0  0  0
   10.9010    7.8409    9.1391 H   0  0  0  0  0  0  0  0  0  0  0  0
   10.9010    7.8409   23.2391 H   0  0  0  0  0  0  0  0  0  0  0  0
   10.9010   18.8052    9.1391 H   0  0  0  0  0  0  0  0  0  0  0  0
   10.9010   18.8052   23.2391 H   0  0  0  0  0  0  0  0  0  0  0  0
   -0.0633    7.8409    9.1391 H   0  0  0  0  0  0  0  0  0  0  0  0
   21.8653    7.8409    9.1391 H   0  0  0  0  0  0  0  0  0  0  0  0
   -0.0633    7.8409   23.2391 H   0  0  0  0  0  0  0  0  0  0  0  0
   21.8653    7.8409   23.2391 H   0  0  0  0  0  0  0  0  0  0  0  0
   -0.0633   18.8052    9.1391 H   0  0  0  0  0  0  0  0  0  0  0  0
   21.8653   18.8052    9.1391 H   0  0  0  0  0  0  0  0  0  0  0  0
   -0.0633   18.8052   23.2391 H   0  0  0  0  0  0  0  0  0  0  0  0
   21.8653   18.8052   23.2391 H   0  0  0  0  0  0  0  0  0  0  0  0
   10.7804    3.3097    9.1348 H   0  0  0  0  0  0  0  0  0  0  0  0
   10.7804    3.3097   23.2348 H   0  0  0  0  0  0  0  0  0  0  0  0
   10.7804   14.2739    9.1348 H   0  0  0  0  0  0  0  0  0  0  0  0
   10.7804   14.2739   23.2348 H   0  0  0  0  0  0  0  0  0  0  0  0
   -0.1839    3.3097    9.1348 H   0  0  0  0  0  0  0  0  0  0  0  0
   21.7447    3.3097    9.1348 H   0  0  0  0  0  0  0  0  0  0  0  0
   -0.1839    3.3097   23.2348 H   0  0  0  0  0  0  0  0  0  0  0  0
   21.7447    3.3097   23.2348 H   0  0  0  0  0  0  0  0  0  0  0  0
   -0.1839   14.2739    9.1348 H   0  0  0  0  0  0  0  0  0  0  0  0
   21.7447   14.2739    9.1348 H   0  0  0  0  0  0  0  0  0  0  0  0
   -0.1839   14.2739   23.2348 H   0  0  0  0  0  0  0  0  0  0  0  0
   21.7447   14.2739   23.2348 H   0  0  0  0  0  0  0  0  0  0  0  0
   10.8204    4.3472    4.7186 H   0  0  0  0  0  0  0  0  0  0  0  0
   10.8204    4.3472   18.8186 H   0  0  0  0  0  0  0  0  0  0  0  0
   10.8204   15.3115    4.7186 H   0  0  0  0  0  0  0  0  0  0  0  0
   10.8204   15.3115   18.8186 H   0  0  0  0  0  0  0  0  0  0  0  0
   -0.1439    4.3472    4.7186 H   0  0  0  0  0  0  0  0  0  0  0  0
   21.7847    4.3472    4.7186 H   0  0  0  0  0  0  0  0  0  0  0  0
   -0.1439    4.3472   18.8186 H   0  0  0  0  0  0  0  0  0  0  0  0
   21.7847    4.3472   18.8186 H   0  0  0  0  0  0  0  0  0  0  0  0
   -0.1439   15.3115    4.7186 H   0  0  0  0  0  0  0  0  0  0  0  0
   21.7847   15.3115    4.7186 H   0  0  0  0  0  0  0  0  0  0  0  0
   -0.1439   15.3115   18.8186 H   0  0  0  0  0  0  0  0  0  0  0  0
   21.7847   15.3115   18.8186 H   0  0  0  0  0  0  0  0  0  0  0  0
   10.7757    6.8233    4.7229 H   0  0  0  0  0  0  0  0  0  0  0  0
   10.7757    6.8233   18.8229 H   0  0  0  0  0  0  0  0  0  0  0  0
   10.7757   17.7876    4.7229 H   0  0  0  0  0  0  0  0  0  0  0  0
   10.7757   17.7876   18.8229 H   0  0  0  0  0  0  0  0  0  0  0  0
   -0.1886    6.8233    4.7229 H   0  0  0  0  0  0  0  0  0  0  0  0
   21.7400    6.8233    4.7229 H   0  0  0  0  0  0  0  0  0  0  0  0
   -0.1886    6.8233   18.8229 H   0  0  0  0  0  0  0  0  0  0  0  0
   21.7400    6.8233   18.8229 H   0  0  0  0  0  0  0  0  0  0  0  0
   -0.1886   17.7876    4.7229 H   0  0  0  0  0  0  0  0  0  0  0  0
   21.7400   17.7876    4.7229 H   0  0  0  0  0  0  0  0  0  0  0  0
   -0.1886   17.7876   18.8229 H   0  0  0  0  0  0  0  0  0  0  0  0
   21.7400   17.7876   18.8229 H   0  0  0  0  0  0  0  0  0  0  0  0
    6.7947    0.1523    6.8473 C   0  0  0  0  0  0  0  0  0  0  0  0
    6.7947   22.0809    6.8473 C   0  0  0  0  0  0  0  0  0  0  0  0
    6.7947    0.1523   20.9473 C   0  0  0  0  0  0  0  0  0  0  0  0
    6.7947   22.0809   20.9473 C   0  0  0  0  0  0  0  0  0  0  0  0
    6.7947   11.1166    6.8473 C   0  0  0  0  0  0  0  0  0  0  0  0
    6.7947   11.1166   20.9473 C   0  0  0  0  0  0  0  0  0  0  0  0
   17.7590    0.1523    6.8473 C   0  0  0  0  0  0  0  0  0  0  0  0
   17.7590   22.0809    6.8473 C   0  0  0  0  0  0  0  0  0  0  0  0
   17.7590    0.1523   20.9473 C   0  0  0  0  0  0  0  0  0  0  0  0
   17.7590   22.0809   20.9473 C   0  0  0  0  0  0  0  0  0  0  0  0
   17.7590   11.1166    6.8473 C   0  0  0  0  0  0  0  0  0  0  0  0
   17.7590   11.1166   20.9473 C   0  0  0  0  0  0  0  0  0  0  0  0
    6.1010    0.1637    8.0601 C   0  0  0  0  0  0  0  0  0  0  0  0
    6.1010   22.0922    8.0601 C   0  0  0  0  0  0  0  0  0  0  0  0
    6.1010    0.1637   22.1601 C   0  0  0  0  0  0  0  0  0  0  0  0
    6.1010   22.0922   22.1601 C   0  0  0  0  0  0  0  0  0  0  0  0
    6.1010   11.1279    8.0601 C   0  0  0  0  0  0  0  0  0  0  0  0
    6.1010   11.1279   22.1601 C   0  0  0  0  0  0  0  0  0  0  0  0
   17.0653    0.1637    8.0601 C   0  0  0  0  0  0  0  0  0  0  0  0
   17.0653   22.0922    8.0601 C   0  0  0  0  0  0  0  0  0  0  0  0
   17.0653    0.1637   22.1601 C   0  0  0  0  0  0  0  0  0  0  0  0
   17.0653   22.0922   22.1601 C   0  0  0  0  0  0  0  0  0  0  0  0
   17.0653   11.1279    8.0601 C   0  0  0  0  0  0  0  0  0  0  0  0
   17.0653   11.1279   22.1601 C   0  0  0  0  0  0  0  0  0  0  0  0
    4.6738    0.1384    8.0620 C   0  0  0  0  0  0  0  0  0  0  0  0
    4.6738   22.0670    8.0620 C   0  0  0  0  0  0  0  0  0  0  0  0
    4.6738    0.1384   22.1620 C   0  0  0  0  0  0  0  0  0  0  0  0
    4.6738   22.0670   22.1620 C   0  0  0  0  0  0  0  0  0  0  0  0
    4.6738   11.1027    8.0620 C   0  0  0  0  0  0  0  0  0  0  0  0
    4.6738   11.1027   22.1620 C   0  0  0  0  0  0  0  0  0  0  0  0
   15.6381    0.1384    8.0620 C   0  0  0  0  0  0  0  0  0  0  0  0
   15.6381   22.0670    8.0620 C   0  0  0  0  0  0  0  0  0  0  0  0
   15.6381    0.1384   22.1620 C   0  0  0  0  0  0  0  0  0  0  0  0
   15.6381   22.0670   22.1620 C   0  0  0  0  0  0  0  0  0  0  0  0
   15.6381   11.1027    8.0620 C   0  0  0  0  0  0  0  0  0  0  0  0
   15.6381   11.1027   22.1620 C   0  0  0  0  0  0  0  0  0  0  0  0
    3.9702    0.1391    6.8544 C   0  0  0  0  0  0  0  0  0  0  0  0
    3.9702   22.0677    6.8544 C   0  0  0  0  0  0  0  0  0  0  0  0
    3.9702    0.1391   20.9544 C   0  0  0  0  0  0  0  0  0  0  0  0
    3.9702   22.0677   20.9544 C   0  0  0  0  0  0  0  0  0  0  0  0
    3.9702   11.1034    6.8544 C   0  0  0  0  0  0  0  0  0  0  0  0
    3.9702   11.1034   20.9544 C   0  0  0  0  0  0  0  0  0  0  0  0
   14.9344    0.1391    6.8544 C   0  0  0  0  0  0  0  0  0  0  0  0
   14.9344   22.0677    6.8544 C   0  0  0  0  0  0  0  0  0  0  0  0
   14.9344    0.1391   20.9544 C   0  0  0  0  0  0  0  0  0  0  0  0
   14.9344   22.0677   20.9544 C   0  0  0  0  0  0  0  0  0  0  0  0
   14.9344   11.1034    6.8544 C   0  0  0  0  0  0  0  0  0  0  0  0
   14.9344   11.1034   20.9544 C   0  0  0  0  0  0  0  0  0  0  0  0
    4.6935    0.1661    5.6492 C   0  0  0  0  0  0  0  0  0  0  0  0
    4.6935   22.0947    5.6492 C   0  0  0  0  0  0  0  0  0  0  0  0
    4.6935    0.1661   19.7492 C   0  0  0  0  0  0  0  0  0  0  0  0
    4.6935   22.0947   19.7492 C   0  0  0  0  0  0  0  0  0  0  0  0
    4.6935   11.1304    5.6492 C   0  0  0  0  0  0  0  0  0  0  0  0
    4.6935   11.1304   19.7492 C   0  0  0  0  0  0  0  0  0  0  0  0
   15.6578    0.1661    5.6492 C   0  0  0  0  0  0  0  0  0  0  0  0
   15.6578   22.0947    5.6492 C   0  0  0  0  0  0  0  0  0  0  0  0
   15.6578    0.1661   19.7492 C   0  0  0  0  0  0  0  0  0  0  0  0
   15.6578   22.0947   19.7492 C   0  0  0  0  0  0  0  0  0  0  0  0
   15.6578   11.1304    5.6492 C   0  0  0  0  0  0  0  0  0  0  0  0
   15.6578   11.1304   19.7492 C   0  0  0  0  0  0  0  0  0  0  0  0
    6.0644    0.1537    5.6449 C   0  0  0  0  0  0  0  0  0  0  0  0
    6.0644   22.0823    5.6449 C   0  0  0  0  0  0  0  0  0  0  0  0
    6.0644    0.1537   19.7449 C   0  0  0  0  0  0  0  0  0  0  0  0
    6.0644   22.0823   19.7449 C   0  0  0  0  0  0  0  0  0  0  0  0
    6.0644   11.1180    5.6449 C   0  0  0  0  0  0  0  0  0  0  0  0
    6.0644   11.1180   19.7449 C   0  0  0  0  0  0  0  0  0  0  0  0
   17.0287    0.1537    5.6449 C   0  0  0  0  0  0  0  0  0  0  0  0
   17.0287   22.0823    5.6449 C   0  0  0  0  0  0  0  0  0  0  0  0
   17.0287    0.1537   19.7449 C   0  0  0  0  0  0  0  0  0  0  0  0
   17.0287   22.0823   19.7449 C   0  0  0  0  0  0  0  0  0  0  0  0
   17.0287   11.1180    5.6449 C   0  0  0  0  0  0  0  0  0  0  0  0
   17.0287   11.1180   19.7449 C   0  0  0  0  0  0  0  0  0  0  0  0
    8.2904    0.1142    6.8085 C   0  0  0  0  0  0  0  0  0  0  0  0
    8.2904   22.0427    6.8085 C   0  0  0  0  0  0  0  0  0  0  0  0
    8.2904    0.1142   20.9085 C   0  0  0  0  0  0  0  0  0  0  0  0
    8.2904   22.0427   20.9085 C   0  0  0  0  0  0  0  0  0  0  0  0
    8.2904   11.0785    6.8085 C   0  0  0  0  0  0  0  0  0  0  0  0
    8.2904   11.0785   20.9085 C   0  0  0  0  0  0  0  0  0  0  0  0
   19.2547    0.1142    6.8085 C   0  0  0  0  0  0  0  0  0  0  0  0
   19.2547   22.0427    6.8085 C   0  0  0  0  0  0  0  0  0  0  0  0
   19.2547    0.1142   20.9085 C   0  0  0  0  0  0  0  0  0  0  0  0
   19.2547   22.0427   20.9085 C   0  0  0  0  0  0  0  0  0  0  0  0
   19.2547   11.0785    6.8085 C   0  0  0  0  0  0  0  0  0  0  0  0
   19.2547   11.0785   20.9085 C   0  0  0  0  0  0  0  0  0  0  0  0
    2.4741    0.1144    6.8345 C   0  0  0  0  0  0  0  0  0  0  0  0
    2.4741   22.0430    6.8345 C   0  0  0  0  0  0  0  0  0  0  0  0
    2.4741    0.1144   20.9345 C   0  0  0  0  0  0  0  0  0  0  0  0
    2.4741   22.0430   20.9345 C   0  0  0  0  0  0  0  0  0  0  0  0
    2.4741   11.0787    6.8345 C   0  0  0  0  0  0  0  0  0  0  0  0
    2.4741   11.0787   20.9345 C   0  0  0  0  0  0  0  0  0  0  0  0
   13.4384    0.1144    6.8345 C   0  0  0  0  0  0  0  0  0  0  0  0
   13.4384   22.0430    6.8345 C   0  0  0  0  0  0  0  0  0  0  0  0
   13.4384    0.1144   20.9345 C   0  0  0  0  0  0  0  0  0  0  0  0
   13.4384   22.0430   20.9345 C   0  0  0  0  0  0  0  0  0  0  0  0
   13.4384   11.0787    6.8345 C   0  0  0  0  0  0  0  0  0  0  0  0
   13.4384   11.0787   20.9345 C   0  0  0  0  0  0  0  0  0  0  0  0
   10.8251    6.9941    6.8543 C   0  0  0  0  0  0  0  0  0  0  0  0
   10.8251    6.9941   20.9543 C   0  0  0  0  0  0  0  0  0  0  0  0
   10.8251   17.9584    6.8543 C   0  0  0  0  0  0  0  0  0  0  0  0
   10.8251   17.9584   20.9543 C   0  0  0  0  0  0  0  0  0  0  0  0
   -0.1391    6.9941    6.8543 C   0  0  0  0  0  0  0  0  0  0  0  0
   21.7894    6.9941    6.8543 C   0  0  0  0  0  0  0  0  0  0  0  0
   -0.1391    6.9941   20.9543 C   0  0  0  0  0  0  0  0  0  0  0  0
   21.7894    6.9941   20.9543 C   0  0  0  0  0  0  0  0  0  0  0  0
   -0.1391   17.9584    6.8543 C   0  0  0  0  0  0  0  0  0  0  0  0
   21.7894   17.9584    6.8543 C   0  0  0  0  0  0  0  0  0  0  0  0
   -0.1391   17.9584   20.9543 C   0  0  0  0  0  0  0  0  0  0  0  0
   21.7894   17.9584   20.9543 C   0  0  0  0  0  0  0  0  0  0  0  0
   10.8258    6.2905    8.0620 C   0  0  0  0  0  0  0  0  0  0  0  0
   10.8258    6.2905   22.1620 C   0  0  0  0  0  0  0  0  0  0  0  0
   10.8258   17.2547    8.0620 C   0  0  0  0  0  0  0  0  0  0  0  0
   10.8258   17.2547   22.1620 C   0  0  0  0  0  0  0  0  0  0  0  0
   -0.1384    6.2905    8.0620 C   0  0  0  0  0  0  0  0  0  0  0  0
   21.7901    6.2905    8.0620 C   0  0  0  0  0  0  0  0  0  0  0  0
   -0.1384    6.2905   22.1620 C   0  0  0  0  0  0  0  0  0  0  0  0
   21.7901    6.2905   22.1620 C   0  0  0  0  0  0  0  0  0  0  0  0
   -0.1384   17.2547    8.0620 C   0  0  0  0  0  0  0  0  0  0  0  0
   21.7901   17.2547    8.0620 C   0  0  0  0  0  0  0  0  0  0  0  0
   -0.1384   17.2547   22.1620 C   0  0  0  0  0  0  0  0  0  0  0  0
   21.7901   17.2547   22.1620 C   0  0  0  0  0  0  0  0  0  0  0  0
   10.8006    4.8632    8.0600 C   0  0  0  0  0  0  0  0  0  0  0  0
   10.8006    4.8632   22.1600 C   0  0  0  0  0  0  0  0  0  0  0  0
   10.8006   15.8275    8.0600 C   0  0  0  0  0  0  0  0  0  0  0  0
   10.8006   15.8275   22.1600 C   0  0  0  0  0  0  0  0  0  0  0  0
   -0.1637    4.8632    8.0600 C   0  0  0  0  0  0  0  0  0  0  0  0
   21.7649    4.8632    8.0600 C   0  0  0  0  0  0  0  0  0  0  0  0
   -0.1637    4.8632   22.1600 C   0  0  0  0  0  0  0  0  0  0  0  0
   21.7649    4.8632   22.1600 C   0  0  0  0  0  0  0  0  0  0  0  0
   -0.1637   15.8275    8.0600 C   0  0  0  0  0  0  0  0  0  0  0  0
   21.7649   15.8275    8.0600 C   0  0  0  0  0  0  0  0  0  0  0  0
   -0.1637   15.8275   22.1600 C   0  0  0  0  0  0  0  0  0  0  0  0
   21.7649   15.8275   22.1600 C   0  0  0  0  0  0  0  0  0  0  0  0
   10.8120    4.1696    6.8472 C   0  0  0  0  0  0  0  0  0  0  0  0
   10.8120    4.1696   20.9472 C   0  0  0  0  0  0  0  0  0  0  0  0
   10.8120   15.1338    6.8472 C   0  0  0  0  0  0  0  0  0  0  0  0
   10.8120   15.1338   20.9472 C   0  0  0  0  0  0  0  0  0  0  0  0
   -0.1523    4.1696    6.8472 C   0  0  0  0  0  0  0  0  0  0  0  0
   21.7763    4.1696    6.8472 C   0  0  0  0  0  0  0  0  0  0  0  0
   -0.1523    4.1696   20.9472 C   0  0  0  0  0  0  0  0  0  0  0  0
   21.7763    4.1696   20.9472 C   0  0  0  0  0  0  0  0  0  0  0  0
   -0.1523   15.1338    6.8472 C   0  0  0  0  0  0  0  0  0  0  0  0
   21.7763   15.1338    6.8472 C   0  0  0  0  0  0  0  0  0  0  0  0
   -0.1523   15.1338   20.9472 C   0  0  0  0  0  0  0  0  0  0  0  0
   21.7763   15.1338   20.9472 C   0  0  0  0  0  0  0  0  0  0  0  0
   10.8107    4.8999    5.6448 C   0  0  0  0  0  0  0  0  0  0  0  0
   10.8107    4.8999   19.7448 C   0  0  0  0  0  0  0  0  0  0  0  0
   10.8107   15.8642    5.6448 C   0  0  0  0  0  0  0  0  0  0  0  0
   10.8107   15.8642   19.7448 C   0  0  0  0  0  0  0  0  0  0  0  0
   -0.1536    4.8999    5.6448 C   0  0  0  0  0  0  0  0  0  0  0  0
   21.7749    4.8999    5.6448 C   0  0  0  0  0  0  0  0  0  0  0  0
   -0.1536    4.8999   19.7448 C   0  0  0  0  0  0  0  0  0  0  0  0
   21.7749    4.8999   19.7448 C   0  0  0  0  0  0  0  0  0  0  0  0
   -0.1536   15.8642    5.6448 C   0  0  0  0  0  0  0  0  0  0  0  0
   21.7749   15.8642    5.6448 C   0  0  0  0  0  0  0  0  0  0  0  0
   -0.1536   15.8642   19.7448 C   0  0  0  0  0  0  0  0  0  0  0  0
   21.7749   15.8642   19.7448 C   0  0  0  0  0  0  0  0  0  0  0  0
   10.7982    6.2708    5.6491 C   0  0  0  0  0  0  0  0  0  0  0  0
   10.7982    6.2708   19.7491 C   0  0  0  0  0  0  0  0  0  0  0  0
   10.7982   17.2351    5.6491 C   0  0  0  0  0  0  0  0  0  0  0  0
   10.7982   17.2351   19.7491 C   0  0  0  0  0  0  0  0  0  0  0  0
   -0.1661    6.2708    5.6491 C   0  0  0  0  0  0  0  0  0  0  0  0
   21.7625    6.2708    5.6491 C   0  0  0  0  0  0  0  0  0  0  0  0
   -0.1661    6.2708   19.7491 C   0  0  0  0  0  0  0  0  0  0  0  0
   21.7625    6.2708   19.7491 C   0  0  0  0  0  0  0  0  0  0  0  0
   -0.1661   17.2351    5.6491 C   0  0  0  0  0  0  0  0  0  0  0  0
   21.7625   17.2351    5.6491 C   0  0  0  0  0  0  0  0  0  0  0  0
   -0.1661   17.2351   19.7491 C   0  0  0  0  0  0  0  0  0  0  0  0
   21.7625   17.2351   19.7491 C   0  0  0  0  0  0  0  0  0  0  0  0
   10.8499    8.4902    6.8346 C   0  0  0  0  0  0  0  0  0  0  0  0
   10.8499    8.4902   20.9346 C   0  0  0  0  0  0  0  0  0  0  0  0
   10.8499   19.4545    6.8346 C   0  0  0  0  0  0  0  0  0  0  0  0
   10.8499   19.4545   20.9346 C   0  0  0  0  0  0  0  0  0  0  0  0
   -0.1144    8.4902    6.8346 C   0  0  0  0  0  0  0  0  0  0  0  0
   21.8141    8.4902    6.8346 C   0  0  0  0  0  0  0  0  0  0  0  0
   -0.1144    8.4902   20.9346 C   0  0  0  0  0  0  0  0  0  0  0  0
   21.8141    8.4902   20.9346 C   0  0  0  0  0  0  0  0  0  0  0  0
   -0.1144   19.4545    6.8346 C   0  0  0  0  0  0  0  0  0  0  0  0
   21.8141   19.4545    6.8346 C   0  0  0  0  0  0  0  0  0  0  0  0
   -0.1144   19.4545   20.9346 C   0  0  0  0  0  0  0  0  0  0  0  0
   21.8141   19.4545   20.9346 C   0  0  0  0  0  0  0  0  0  0  0  0
   10.8501    2.6738    6.8085 C   0  0  0  0  0  0  0  0  0  0  0  0
   10.8501    2.6738   20.9085 C   0  0  0  0  0  0  0  0  0  0  0  0
   10.8501   13.6381    6.8085 C   0  0  0  0  0  0  0  0  0  0  0  0
   10.8501   13.6381   20.9085 C   0  0  0  0  0  0  0  0  0  0  0  0
   -0.1141    2.6738    6.8085 C   0  0  0  0  0  0  0  0  0  0  0  0
   21.8144    2.6738    6.8085 C   0  0  0  0  0  0  0  0  0  0  0  0
   -0.1141    2.6738   20.9085 C   0  0  0  0  0  0  0  0  0  0  0  0
   21.8144    2.6738   20.9085 C   0  0  0  0  0  0  0  0  0  0  0  0
   -0.1141   13.6381    6.8085 C   0  0  0  0  0  0  0  0  0  0  0  0
   21.8144   13.6381    6.8085 C   0  0  0  0  0  0  0  0  0  0  0  0
   -0.1141   13.6381   20.9085 C   0  0  0  0  0  0  0  0  0  0  0  0
   21.8144   13.6381   20.9085 C   0  0  0  0  0  0  0  0  0  0  0  0
   10.8368    0.1275   12.3994 C   0  0  0  0  0  0  0  0  0  0  0  0
   10.8368   22.0561   12.3994 C   0  0  0  0  0  0  0  0  0  0  0  0
   10.8368    0.1275   26.4994 C   0  0  0  0  0  0  0  0  0  0  0  0
   10.8368   22.0561   26.4994 C   0  0  0  0  0  0  0  0  0  0  0  0
   10.8368   11.0918   12.3994 C   0  0  0  0  0  0  0  0  0  0  0  0
   10.8368   11.0918   26.4994 C   0  0  0  0  0  0  0  0  0  0  0  0
   -0.1275    0.1275   12.3994 C   0  0  0  0  0  0  0  0  0  0  0  0
   -0.1275   22.0561   12.3994 C   0  0  0  0  0  0  0  0  0  0  0  0
   21.8010    0.1275   12.3994 C   0  0  0  0  0  0  0  0  0  0  0  0
   21.8010   22.0561   12.3994 C   0  0  0  0  0  0  0  0  0  0  0  0
   -0.1275    0.1275   26.4994 C   0  0  0  0  0  0  0  0  0  0  0  0
   -0.1275   22.0561   26.4994 C   0  0  0  0  0  0  0  0  0  0  0  0
   21.8010    0.1275   26.4994 C   0  0  0  0  0  0  0  0  0  0  0  0
   21.8010   22.0561   26.4994 C   0  0  0  0  0  0  0  0  0  0  0  0
   -0.1275   11.0918   12.3994 C   0  0  0  0  0  0  0  0  0  0  0  0
   21.8010   11.0918   12.3994 C   0  0  0  0  0  0  0  0  0  0  0  0
   -0.1275   11.0918   26.4994 C   0  0  0  0  0  0  0  0  0  0  0  0
   21.8010   11.0918   26.4994 C   0  0  0  0  0  0  0  0  0  0  0  0
   10.8754    0.0889   13.7665 C   0  0  0  0  0  0  0  0  0  0  0  0
   10.8754   22.0175   13.7665 C   0  0  0  0  0  0  0  0  0  0  0  0
   10.8754    0.0889   -0.3335 C   0  0  0  0  0  0  0  0  0  0  0  0
   10.8754    0.0889   27.8665 C   0  0  0  0  0  0  0  0  0  0  0  0
   10.8754   22.0175   -0.3335 C   0  0  0  0  0  0  0  0  0  0  0  0
   10.8754   22.0175   27.8665 C   0  0  0  0  0  0  0  0  0  0  0  0
   10.8754   11.0532   13.7665 C   0  0  0  0  0  0  0  0  0  0  0  0
   10.8754   11.0532   -0.3335 C   0  0  0  0  0  0  0  0  0  0  0  0
   10.8754   11.0532   27.8665 C   0  0  0  0  0  0  0  0  0  0  0  0
   -0.0889    0.0889   13.7665 C   0  0  0  0  0  0  0  0  0  0  0  0
   -0.0889   22.0175   13.7665 C   0  0  0  0  0  0  0  0  0  0  0  0
   21.8396    0.0889   13.7665 C   0  0  0  0  0  0  0  0  0  0  0  0
   21.8396   22.0175   13.7665 C   0  0  0  0  0  0  0  0  0  0  0  0
   -0.0889    0.0889   -0.3335 C   0  0  0  0  0  0  0  0  0  0  0  0
   -0.0889    0.0889   27.8665 C   0  0  0  0  0  0  0  0  0  0  0  0
   -0.0889   22.0175   -0.3335 C   0  0  0  0  0  0  0  0  0  0  0  0
   -0.0889   22.0175   27.8665 C   0  0  0  0  0  0  0  0  0  0  0  0
   21.8396    0.0889   -0.3335 C   0  0  0  0  0  0  0  0  0  0  0  0
   21.8396    0.0889   27.8665 C   0  0  0  0  0  0  0  0  0  0  0  0
   21.8396   22.0175   -0.3335 C   0  0  0  0  0  0  0  0  0  0  0  0
   21.8396   22.0175   27.8665 C   0  0  0  0  0  0  0  0  0  0  0  0
   -0.0889   11.0532   13.7665 C   0  0  0  0  0  0  0  0  0  0  0  0
   21.8396   11.0532   13.7665 C   0  0  0  0  0  0  0  0  0  0  0  0
   -0.0889   11.0532   -0.3335 C   0  0  0  0  0  0  0  0  0  0  0  0
   -0.0889   11.0532   27.8665 C   0  0  0  0  0  0  0  0  0  0  0  0
   21.8396   11.0532   -0.3335 C   0  0  0  0  0  0  0  0  0  0  0  0
   21.8396   11.0532   27.8665 C   0  0  0  0  0  0  0  0  0  0  0  0
   10.8956    0.0687    0.8862 C   0  0  0  0  0  0  0  0  0  0  0  0
   10.8956    0.0687   29.0862 C   0  0  0  0  0  0  0  0  0  0  0  0
   10.8956   21.9973    0.8862 C   0  0  0  0  0  0  0  0  0  0  0  0
   10.8956   21.9973   29.0862 C   0  0  0  0  0  0  0  0  0  0  0  0
   10.8956    0.0687   14.9862 C   0  0  0  0  0  0  0  0  0  0  0  0
   10.8956   21.9973   14.9862 C   0  0  0  0  0  0  0  0  0  0  0  0
   10.8956   11.0330    0.8862 C   0  0  0  0  0  0  0  0  0  0  0  0
   10.8956   11.0330   29.0862 C   0  0  0  0  0  0  0  0  0  0  0  0
   10.8956   11.0330   14.9862 C   0  0  0  0  0  0  0  0  0  0  0  0
   -0.0687    0.0687    0.8862 C   0  0  0  0  0  0  0  0  0  0  0  0
   -0.0687    0.0687   29.0862 C   0  0  0  0  0  0  0  0  0  0  0  0
   -0.0687   21.9973    0.8862 C   0  0  0  0  0  0  0  0  0  0  0  0
   -0.0687   21.9973   29.0862 C   0  0  0  0  0  0  0  0  0  0  0  0
   21.8599    0.0687    0.8862 C   0  0  0  0  0  0  0  0  0  0  0  0
   21.8599    0.0687   29.0862 C   0  0  0  0  0  0  0  0  0  0  0  0
   21.8599   21.9973    0.8862 C   0  0  0  0  0  0  0  0  0  0  0  0
   21.8599   21.9973   29.0862 C   0  0  0  0  0  0  0  0  0  0  0  0
   -0.0687    0.0687   14.9862 C   0  0  0  0  0  0  0  0  0  0  0  0
   -0.0687   21.9973   14.9862 C   0  0  0  0  0  0  0  0  0  0  0  0
   21.8599    0.0687   14.9862 C   0  0  0  0  0  0  0  0  0  0  0  0
   21.8599   21.9973   14.9862 C   0  0  0  0  0  0  0  0  0  0  0  0
   -0.0687   11.0330    0.8862 C   0  0  0  0  0  0  0  0  0  0  0  0
   -0.0687   11.0330   29.0862 C   0  0  0  0  0  0  0  0  0  0  0  0
   21.8599   11.0330    0.8862 C   0  0  0  0  0  0  0  0  0  0  0  0
   21.8599   11.0330   29.0862 C   0  0  0  0  0  0  0  0  0  0  0  0
   -0.0687   11.0330   14.9862 C   0  0  0  0  0  0  0  0  0  0  0  0
   21.8599   11.0330   14.9862 C   0  0  0  0  0  0  0  0  0  0  0  0
   10.8986    0.0657    2.2466 C   0  0  0  0  0  0  0  0  0  0  0  0
   10.8986   21.9942    2.2466 C   0  0  0  0  0  0  0  0  0  0  0  0
   10.8986    0.0657   16.3466 C   0  0  0  0  0  0  0  0  0  0  0  0
   10.8986   21.9942   16.3466 C   0  0  0  0  0  0  0  0  0  0  0  0
   10.8986   11.0300    2.2466 C   0  0  0  0  0  0  0  0  0  0  0  0
   10.8986   11.0300   16.3466 C   0  0  0  0  0  0  0  0  0  0  0  0
   -0.0656    0.0657    2.2466 C   0  0  0  0  0  0  0  0  0  0  0  0
   -0.0656   21.9942    2.2466 C   0  0  0  0  0  0  0  0  0  0  0  0
   21.8629    0.0657    2.2466 C   0  0  0  0  0  0  0  0  0  0  0  0
   21.8629   21.9942    2.2466 C   0  0  0  0  0  0  0  0  0  0  0  0
   -0.0656    0.0657   16.3466 C   0  0  0  0  0  0  0  0  0  0  0  0
   -0.0656   21.9942   16.3466 C   0  0  0  0  0  0  0  0  0  0  0  0
   21.8629    0.0657   16.3466 C   0  0  0  0  0  0  0  0  0  0  0  0
   21.8629   21.9942   16.3466 C   0  0  0  0  0  0  0  0  0  0  0  0
   -0.0656   11.0300    2.2466 C   0  0  0  0  0  0  0  0  0  0  0  0
   21.8629   11.0300    2.2466 C   0  0  0  0  0  0  0  0  0  0  0  0
   -0.0656   11.0300   16.3466 C   0  0  0  0  0  0  0  0  0  0  0  0
   21.8629   11.0300   16.3466 C   0  0  0  0  0  0  0  0  0  0  0  0
   10.7957    0.1686   11.2501 N   0  0  0  0  0  0  0  0  0  0  0  0
   10.7957   22.0972   11.2501 N   0  0  0  0  0  0  0  0  0  0  0  0
   10.7957    0.1686   25.3501 N   0  0  0  0  0  0  0  0  0  0  0  0
   10.7957   22.0972   25.3501 N   0  0  0  0  0  0  0  0  0  0  0  0
   10.7957   11.1329   11.2501 N   0  0  0  0  0  0  0  0  0  0  0  0
   10.7957   11.1329   25.3501 N   0  0  0  0  0  0  0  0  0  0  0  0
   -0.1686    0.1686   11.2501 N   0  0  0  0  0  0  0  0  0  0  0  0
   -0.1686   22.0972   11.2501 N   0  0  0  0  0  0  0  0  0  0  0  0
   21.7600    0.1686   11.2501 N   0  0  0  0  0  0  0  0  0  0  0  0
   21.7600   22.0972   11.2501 N   0  0  0  0  0  0  0  0  0  0  0  0
   -0.1686    0.1686   25.3501 N   0  0  0  0  0  0  0  0  0  0  0  0
   -0.1686   22.0972   25.3501 N   0  0  0  0  0  0  0  0  0  0  0  0
   21.7600    0.1686   25.3501 N   0  0  0  0  0  0  0  0  0  0  0  0
   21.7600   22.0972   25.3501 N   0  0  0  0  0  0  0  0  0  0  0  0
   -0.1686   11.1329   11.2501 N   0  0  0  0  0  0  0  0  0  0  0  0
   21.7600   11.1329   11.2501 N   0  0  0  0  0  0  0  0  0  0  0  0
   -0.1686   11.1329   25.3501 N   0  0  0  0  0  0  0  0  0  0  0  0
   21.7600   11.1329   25.3501 N   0  0  0  0  0  0  0  0  0  0  0  0
   10.8909    0.0734    3.3979 N   0  0  0  0  0  0  0  0  0  0  0  0
   10.8909   22.0019    3.3979 N   0  0  0  0  0  0  0  0  0  0  0  0
   10.8909    0.0734   17.4979 N   0  0  0  0  0  0  0  0  0  0  0  0
   10.8909   22.0019   17.4979 N   0  0  0  0  0  0  0  0  0  0  0  0
   10.8909   11.0377    3.3979 N   0  0  0  0  0  0  0  0  0  0  0  0
   10.8909   11.0377   17.4979 N   0  0  0  0  0  0  0  0  0  0  0  0
   -0.0733    0.0734    3.3979 N   0  0  0  0  0  0  0  0  0  0  0  0
   -0.0733   22.0019    3.3979 N   0  0  0  0  0  0  0  0  0  0  0  0
   21.8552    0.0734    3.3979 N   0  0  0  0  0  0  0  0  0  0  0  0
   21.8552   22.0019    3.3979 N   0  0  0  0  0  0  0  0  0  0  0  0
   -0.0733    0.0734   17.4979 N   0  0  0  0  0  0  0  0  0  0  0  0
   -0.0733   22.0019   17.4979 N   0  0  0  0  0  0  0  0  0  0  0  0
   21.8552    0.0734   17.4979 N   0  0  0  0  0  0  0  0  0  0  0  0
   21.8552   22.0019   17.4979 N   0  0  0  0  0  0  0  0  0  0  0  0
   -0.0733   11.0377    3.3979 N   0  0  0  0  0  0  0  0  0  0  0  0
   21.8552   11.0377    3.3979 N   0  0  0  0  0  0  0  0  0  0  0  0
   -0.0733   11.0377   17.4979 N   0  0  0  0  0  0  0  0  0  0  0  0
   21.8552   11.0377   17.4979 N   0  0  0  0  0  0  0  0  0  0  0  0
    8.9014    0.0940    7.9257 O   0  0  0  0  0  0  0  0  0  0  0  0
    8.9014   22.0226    7.9257 O   0  0  0  0  0  0  0  0  0  0  0  0
    8.9014    0.0940   22.0257 O   0  0  0  0  0  0  0  0  0  0  0  0
    8.9014   22.0226   22.0257 O   0  0  0  0  0  0  0  0  0  0  0  0
    8.9014   11.0583    7.9257 O   0  0  0  0  0  0  0  0  0  0  0  0
    8.9014   11.0583   22.0257 O   0  0  0  0  0  0  0  0  0  0  0  0
   19.8657    0.0940    7.9257 O   0  0  0  0  0  0  0  0  0  0  0  0
   19.8657   22.0226    7.9257 O   0  0  0  0  0  0  0  0  0  0  0  0
   19.8657    0.0940   22.0257 O   0  0  0  0  0  0  0  0  0  0  0  0
   19.8657   22.0226   22.0257 O   0  0  0  0  0  0  0  0  0  0  0  0
   19.8657   11.0583    7.9257 O   0  0  0  0  0  0  0  0  0  0  0  0
   19.8657   11.0583   22.0257 O   0  0  0  0  0  0  0  0  0  0  0  0
    8.8745    0.0942    5.7057 O   0  0  0  0  0  0  0  0  0  0  0  0
    8.8745   22.0228    5.7057 O   0  0  0  0  0  0  0  0  0  0  0  0
    8.8745    0.0942   19.8057 O   0  0  0  0  0  0  0  0  0  0  0  0
    8.8745   22.0228   19.8057 O   0  0  0  0  0  0  0  0  0  0  0  0
    8.8745   11.0585    5.7057 O   0  0  0  0  0  0  0  0  0  0  0  0
    8.8745   11.0585   19.8057 O   0  0  0  0  0  0  0  0  0  0  0  0
   19.8387    0.0942    5.7057 O   0  0  0  0  0  0  0  0  0  0  0  0
   19.8387   22.0228    5.7057 O   0  0  0  0  0  0  0  0  0  0  0  0
   19.8387    0.0942   19.8057 O   0  0  0  0  0  0  0  0  0  0  0  0
   19.8387   22.0228   19.8057 O   0  0  0  0  0  0  0  0  0  0  0  0
   19.8387   11.0585    5.7057 O   0  0  0  0  0  0  0  0  0  0  0  0
   19.8387   11.0585   19.8057 O   0  0  0  0  0  0  0  0  0  0  0  0
    1.8716    0.0877    7.9572 O   0  0  0  0  0  0  0  0  0  0  0  0
    1.8716   22.0163    7.9572 O   0  0  0  0  0  0  0  0  0  0  0  0
    1.8716    0.0877   22.0572 O   0  0  0  0  0  0  0  0  0  0  0  0
    1.8716   22.0163   22.0572 O   0  0  0  0  0  0  0  0  0  0  0  0
    1.8716   11.0520    7.9572 O   0  0  0  0  0  0  0  0  0  0  0  0
    1.8716   11.0520   22.0572 O   0  0  0  0  0  0  0  0  0  0  0  0
   12.8358    0.0877    7.9572 O   0  0  0  0  0  0  0  0  0  0  0  0
   12.8358   22.0163    7.9572 O   0  0  0  0  0  0  0  0  0  0  0  0
   12.8358    0.0877   22.0572 O   0  0  0  0  0  0  0  0  0  0  0  0
   12.8358   22.0163   22.0572 O   0  0  0  0  0  0  0  0  0  0  0  0
   12.8358   11.0520    7.9572 O   0  0  0  0  0  0  0  0  0  0  0  0
   12.8358   11.0520   22.0572 O   0  0  0  0  0  0  0  0  0  0  0  0
    1.8829    0.1173    5.7357 O   0  0  0  0  0  0  0  0  0  0  0  0
    1.8829   22.0458    5.7357 O   0  0  0  0  0  0  0  0  0  0  0  0
    1.8829    0.1173   19.8357 O   0  0  0  0  0  0  0  0  0  0  0  0
    1.8829   22.0458   19.8357 O   0  0  0  0  0  0  0  0  0  0  0  0
    1.8829   11.0816    5.7357 O   0  0  0  0  0  0  0  0  0  0  0  0
    1.8829   11.0816   19.8357 O   0  0  0  0  0  0  0  0  0  0  0  0
   12.8471    0.1173    5.7357 O   0  0  0  0  0  0  0  0  0  0  0  0
   12.8471   22.0458    5.7357 O   0  0  0  0  0  0  0  0  0  0  0  0
   12.8471    0.1173   19.8357 O   0  0  0  0  0  0  0  0  0  0  0  0
   12.8471   22.0458   19.8357 O   0  0  0  0  0  0  0  0  0  0  0  0
   12.8471   11.0816    5.7357 O   0  0  0  0  0  0  0  0  0  0  0  0
   12.8471   11.0816   19.8357 O   0  0  0  0  0  0  0  0  0  0  0  0
    6.6837    0.1908    9.2602 O   0  0  0  0  0  0  0  0  0  0  0  0
    6.6837   22.1194    9.2602 O   0  0  0  0  0  0  0  0  0  0  0  0
    6.6837    0.1908   23.3602 O   0  0  0  0  0  0  0  0  0  0  0  0
    6.6837   22.1194   23.3602 O   0  0  0  0  0  0  0  0  0  0  0  0
    6.6837   11.1551    9.2602 O   0  0  0  0  0  0  0  0  0  0  0  0
    6.6837   11.1551   23.3602 O   0  0  0  0  0  0  0  0  0  0  0  0
   17.6480    0.1908    9.2602 O   0  0  0  0  0  0  0  0  0  0  0  0
   17.6480   22.1194    9.2602 O   0  0  0  0  0  0  0  0  0  0  0  0
   17.6480    0.1908   23.3602 O   0  0  0  0  0  0  0  0  0  0  0  0
   17.6480   22.1194   23.3602 O   0  0  0  0  0  0  0  0  0  0  0  0
   17.6480   11.1551    9.2602 O   0  0  0  0  0  0  0  0  0  0  0  0
   17.6480   11.1551   23.3602 O   0  0  0  0  0  0  0  0  0  0  0  0
    4.0966    0.1042    9.2638 O   0  0  0  0  0  0  0  0  0  0  0  0
    4.0966   22.0328    9.2638 O   0  0  0  0  0  0  0  0  0  0  0  0
    4.0966    0.1042   23.3638 O   0  0  0  0  0  0  0  0  0  0  0  0
    4.0966   22.0328   23.3638 O   0  0  0  0  0  0  0  0  0  0  0  0
    4.0966   11.0685    9.2638 O   0  0  0  0  0  0  0  0  0  0  0  0
    4.0966   11.0685   23.3638 O   0  0  0  0  0  0  0  0  0  0  0  0
   15.0609    0.1042    9.2638 O   0  0  0  0  0  0  0  0  0  0  0  0
   15.0609   22.0328    9.2638 O   0  0  0  0  0  0  0  0  0  0  0  0
   15.0609    0.1042   23.3638 O   0  0  0  0  0  0  0  0  0  0  0  0
   15.0609   22.0328   23.3638 O   0  0  0  0  0  0  0  0  0  0  0  0
   15.0609   11.0685    9.2638 O   0  0  0  0  0  0  0  0  0  0  0  0
   15.0609   11.0685   23.3638 O   0  0  0  0  0  0  0  0  0  0  0  0
   10.8765    9.0927    7.9572 O   0  0  0  0  0  0  0  0  0  0  0  0
   10.8765    9.0927   22.0572 O   0  0  0  0  0  0  0  0  0  0  0  0
   10.8765   20.0570    7.9572 O   0  0  0  0  0  0  0  0  0  0  0  0
   10.8765   20.0570   22.0572 O   0  0  0  0  0  0  0  0  0  0  0  0
   -0.0877    9.0927    7.9572 O   0  0  0  0  0  0  0  0  0  0  0  0
   21.8408    9.0927    7.9572 O   0  0  0  0  0  0  0  0  0  0  0  0
   -0.0877    9.0927   22.0572 O   0  0  0  0  0  0  0  0  0  0  0  0
   21.8408    9.0927   22.0572 O   0  0  0  0  0  0  0  0  0  0  0  0
   -0.0877   20.0570    7.9572 O   0  0  0  0  0  0  0  0  0  0  0  0
   21.8408   20.0570    7.9572 O   0  0  0  0  0  0  0  0  0  0  0  0
   -0.0877   20.0570   22.0572 O   0  0  0  0  0  0  0  0  0  0  0  0
   21.8408   20.0570   22.0572 O   0  0  0  0  0  0  0  0  0  0  0  0
   10.8470    9.0815    5.7357 O   0  0  0  0  0  0  0  0  0  0  0  0
   10.8470    9.0815   19.8357 O   0  0  0  0  0  0  0  0  0  0  0  0
   10.8470   20.0458    5.7357 O   0  0  0  0  0  0  0  0  0  0  0  0
   10.8470   20.0458   19.8357 O   0  0  0  0  0  0  0  0  0  0  0  0
   -0.1173    9.0815    5.7357 O   0  0  0  0  0  0  0  0  0  0  0  0
   21.8113    9.0815    5.7357 O   0  0  0  0  0  0  0  0  0  0  0  0
   -0.1173    9.0815   19.8357 O   0  0  0  0  0  0  0  0  0  0  0  0
   21.8113    9.0815   19.8357 O   0  0  0  0  0  0  0  0  0  0  0  0
   -0.1173   20.0458    5.7357 O   0  0  0  0  0  0  0  0  0  0  0  0
   21.8113   20.0458    5.7357 O   0  0  0  0  0  0  0  0  0  0  0  0
   -0.1173   20.0458   19.8357 O   0  0  0  0  0  0  0  0  0  0  0  0
   21.8113   20.0458   19.8357 O   0  0  0  0  0  0  0  0  0  0  0  0
   10.8702    2.0628    7.9257 O   0  0  0  0  0  0  0  0  0  0  0  0
   10.8702    2.0628   22.0257 O   0  0  0  0  0  0  0  0  0  0  0  0
   10.8702   13.0271    7.9257 O   0  0  0  0  0  0  0  0  0  0  0  0
   10.8702   13.0271   22.0257 O   0  0  0  0  0  0  0  0  0  0  0  0
   -0.0940    2.0628    7.9257 O   0  0  0  0  0  0  0  0  0  0  0  0
   21.8345    2.0628    7.9257 O   0  0  0  0  0  0  0  0  0  0  0  0
   -0.0940    2.0628   22.0257 O   0  0  0  0  0  0  0  0  0  0  0  0
   21.8345    2.0628   22.0257 O   0  0  0  0  0  0  0  0  0  0  0  0
   -0.0940   13.0271    7.9257 O   0  0  0  0  0  0  0  0  0  0  0  0
   21.8345   13.0271    7.9257 O   0  0  0  0  0  0  0  0  0  0  0  0
   -0.0940   13.0271   22.0257 O   0  0  0  0  0  0  0  0  0  0  0  0
   21.8345   13.0271   22.0257 O   0  0  0  0  0  0  0  0  0  0  0  0
   10.8700    2.0898    5.7057 O   0  0  0  0  0  0  0  0  0  0  0  0
   10.8700    2.0898   19.8057 O   0  0  0  0  0  0  0  0  0  0  0  0
   10.8700   13.0541    5.7057 O   0  0  0  0  0  0  0  0  0  0  0  0
   10.8700   13.0541   19.8057 O   0  0  0  0  0  0  0  0  0  0  0  0
   -0.0942    2.0898    5.7057 O   0  0  0  0  0  0  0  0  0  0  0  0
   21.8343    2.0898    5.7057 O   0  0  0  0  0  0  0  0  0  0  0  0
   -0.0942    2.0898   19.8057 O   0  0  0  0  0  0  0  0  0  0  0  0
   21.8343    2.0898   19.8057 O   0  0  0  0  0  0  0  0  0  0  0  0
   -0.0942   13.0541    5.7057 O   0  0  0  0  0  0  0  0  0  0  0  0
   21.8343   13.0541    5.7057 O   0  0  0  0  0  0  0  0  0  0  0  0
   -0.0942   13.0541   19.8057 O   0  0  0  0  0  0  0  0  0  0  0  0
   21.8343   13.0541   19.8057 O   0  0  0  0  0  0  0  0  0  0  0  0
   10.8600    6.8676    9.2637 O   0  0  0  0  0  0  0  0  0  0  0  0
   10.8600    6.8676   23.3637 O   0  0  0  0  0  0  0  0  0  0  0  0
   10.8600   17.8319    9.2637 O   0  0  0  0  0  0  0  0  0  0  0  0
   10.8600   17.8319   23.3637 O   0  0  0  0  0  0  0  0  0  0  0  0
   -0.1043    6.8676    9.2637 O   0  0  0  0  0  0  0  0  0  0  0  0
   21.8243    6.8676    9.2637 O   0  0  0  0  0  0  0  0  0  0  0  0
   -0.1043    6.8676   23.3637 O   0  0  0  0  0  0  0  0  0  0  0  0
   21.8243    6.8676   23.3637 O   0  0  0  0  0  0  0  0  0  0  0  0
   -0.1043   17.8319    9.2637 O   0  0  0  0  0  0  0  0  0  0  0  0
   21.8243   17.8319    9.2637 O   0  0  0  0  0  0  0  0  0  0  0  0
   -0.1043   17.8319   23.3637 O   0  0  0  0  0  0  0  0  0  0  0  0
   21.8243   17.8319   23.3637 O   0  0  0  0  0  0  0  0  0  0  0  0
   10.7734    4.2806    9.2601 O   0  0  0  0  0  0  0  0  0  0  0  0
   10.7734    4.2806   23.3601 O   0  0  0  0  0  0  0  0  0  0  0  0
   10.7734   15.2449    9.2601 O   0  0  0  0  0  0  0  0  0  0  0  0
   10.7734   15.2449   23.3601 O   0  0  0  0  0  0  0  0  0  0  0  0
   -0.1909    4.2806    9.2601 O   0  0  0  0  0  0  0  0  0  0  0  0
   21.7377    4.2806    9.2601 O   0  0  0  0  0  0  0  0  0  0  0  0
   -0.1909    4.2806   23.3601 O   0  0  0  0  0  0  0  0  0  0  0  0
   21.7377    4.2806   23.3601 O   0  0  0  0  0  0  0  0  0  0  0  0
   -0.1909   15.2449    9.2601 O   0  0  0  0  0  0  0  0  0  0  0  0
   21.7377   15.2449    9.2601 O   0  0  0  0  0  0  0  0  0  0  0  0
   -0.1909   15.2449   23.3601 O   0  0  0  0  0  0  0  0  0  0  0  0
   21.7377   15.2449   23.3601 O   0  0  0  0  0  0  0  0  0  0  0  0
  1433  1  0  0  0  0
  1463  1  0  0  0  0
  1493  1  0  0  0  0
  1559  1  0  0  0  0
  2434  1  0  0  0  0
  2464  1  0  0  0  0
  2494  1  0  0  0  0
  2537  1  0  0  0  0
  3435  1  0  0  0  0
  3465  1  0  0  0  0
  3495  1  0  0  0  0
  3560  1  0  0  0  0
  4436  1  0  0  0  0
  4466  1  0  0  0  0
  4496  1  0  0  0  0
  4538  1  0  0  0  0
  5437  1  0  0  0  0
  5467  1  0  0  0  0
  5497  1  0  0  0  0
  5535  1  0  0  0  0
  5561  1  0  0  0  0
  6438  1  0  0  0  0
  6468  1  0  0  0  0
  6498  1  0  0  0  0
  6536  1  0  0  0  0
  6562  1  0  0  0  0
  7439  1  0  0  0  0
  7487  1  0  0  0  0
  7563  1  0  0  0  0
  8440  1  0  0  0  0
  8488  1  0  0  0  0
  8543  1  0  0  0  0
  9441  1  0  0  0  0
  9469  1  0  0  0  0
  9564  1  0  0  0  0
 10442  1  0  0  0  0
 10470  1  0  0  0  0
 10544  1  0  0  0  0
 11443  1  0  0  0  0
 11489  1  0  0  0  0
 11565  1  0  0  0  0
 12444  1  0  0  0  0
 12490  1  0  0  0  0
 12545  1  0  0  0  0
 13445  1  0  0  0  0
 13471  1  0  0  0  0
 13566  1  0  0  0  0
 14446  1  0  0  0  0
 14472  1  0  0  0  0
 14546  1  0  0  0  0
 15447  1  0  0  0  0
 15491  1  0  0  0  0
 15539  1  0  0  0  0
 15567  1  0  0  0  0
 16448  1  0  0  0  0
 16473  1  0  0  0  0
 16540  1  0  0  0  0
 16568  1  0  0  0  0
 17449  1  0  0  0  0
 17492  1  0  0  0  0
 17541  1  0  0  0  0
 17569  1  0  0  0  0
 18450  1  0  0  0  0
 18474  1  0  0  0  0
 18542  1  0  0  0  0
 18570  1  0  0  0  0
 19451  1  0  0  0  0
 19481  1  0  0  0  0
 19547  1  0  0  0  0
 20452  1  0  0  0  0
 20482  1  0  0  0  0
 20525  1  0  0  0  0
 21453  1  0  0  0  0
 21483  1  0  0  0  0
 21548  1  0  0  0  0
 22454  1  0  0  0  0
 22484  1  0  0  0  0
 22526  1  0  0  0  0
 23455  1  0  0  0  0
 23485  1  0  0  0  0
 23523  1  0  0  0  0
 23549  1  0  0  0  0
 24456  1  0  0  0  0
 24486  1  0  0  0  0
 24524  1  0  0  0  0
 24550  1  0  0  0  0
 25475  1  0  0  0  0
 25551  1  0  0  0  0
 26476  1  0  0  0  0
 26531  1  0  0  0  0
 27457  1  0  0  0  0
 27552  1  0  0  0  0
 28458  1  0  0  0  0
 28532  1  0  0  0  0
 29477  1  0  0  0  0
 29553  1  0  0  0  0
 30478  1  0  0  0  0
 30533  1  0  0  0  0
 31459  1  0  0  0  0
 31554  1  0  0  0  0
 32460  1  0  0  0  0
 32534  1  0  0  0  0
 33479  1  0  0  0  0
 33527  1  0  0  0  0
 33555  1  0  0  0  0
 34461  1  0  0  0  0
 34528  1  0  0  0  0
 34556  1  0  0  0  0
 35480  1  0  0  0  0
 35529  1  0  0  0  0
 35557  1  0  0  0  0
 36462  1  0  0  0  0
 36530  1  0  0  0  0
 36558  1  0  0  0  0
 37499  1  0  0  0  0
 38500  1  0  0  0  0
 39501  1  0  0  0  0
 40502  1  0  0  0  0
 41503  1  0  0  0  0
 42504  1  0  0  0  0
 43505  1  0  0  0  0
 44506  1  0  0  0  0
 45507  1  0  0  0  0
 46508  1  0  0  0  0
 47509  1  0  0  0  0
 48510  1  0  0  0  0
 49511  1  0  0  0  0
 50512  1  0  0  0  0
 51513  1  0  0  0  0
 52514  1  0  0  0  0
 53515  1  0  0  0  0
 54516  1  0  0  0  0
 55517  1  0  0  0  0
 56518  1  0  0  0  0
 57519  1  0  0  0  0
 58520  1  0  0  0  0
 59521  1  0  0  0  0
 60522  1  0  0  0  0
 61181  1  0  0  0  0
 62182  1  0  0  0  0
 63183  1  0  0  0  0
 64184  1  0  0  0  0
 65185  1  0  0  0  0
 66186  1  0  0  0  0
 67187  1  0  0  0  0
 68188  1  0  0  0  0
 69189  1  0  0  0  0
 70190  1  0  0  0  0
 71191  1  0  0  0  0
 72192  1  0  0  0  0
 73193  1  0  0  0  0
 74194  1  0  0  0  0
 75195  1  0  0  0  0
 76196  1  0  0  0  0
 77197  1  0  0  0  0
 78198  1  0  0  0  0
 79199  1  0  0  0  0
 80200  1  0  0  0  0
 81201  1  0  0  0  0
 82202  1  0  0  0  0
 83203  1  0  0  0  0
 84204  1  0  0  0  0
 85571  1  0  0  0  0
 86572  1  0  0  0  0
 87573  1  0  0  0  0
 88574  1  0  0  0  0
 89575  1  0  0  0  0
 90576  1  0  0  0  0
 91577  1  0  0  0  0
 92578  1  0  0  0  0
 93579  1  0  0  0  0
 94580  1  0  0  0  0
 95581  1  0  0  0  0
 96582  1  0  0  0  0
 97583  1  0  0  0  0
 98584  1  0  0  0  0
 99585  1  0  0  0  0
100586  1  0  0  0  0
101587  1  0  0  0  0
102588  1  0  0  0  0
103589  1  0  0  0  0
104590  1  0  0  0  0
105591  1  0  0  0  0
106592  1  0  0  0  0
107593  1  0  0  0  0
108594  1  0  0  0  0
109277  1  0  0  0  0
110278  1  0  0  0  0
111279  1  0  0  0  0
112280  1  0  0  0  0
113281  1  0  0  0  0
114282  1  0  0  0  0
115283  1  0  0  0  0
116284  1  0  0  0  0
117285  1  0  0  0  0
118286  1  0  0  0  0
119287  1  0  0  0  0
120288  1  0  0  0  0
121289  1  0  0  0  0
122290  1  0  0  0  0
123291  1  0  0  0  0
124292  1  0  0  0  0
125293  1  0  0  0  0
126294  1  0  0  0  0
127295  1  0  0  0  0
128296  1  0  0  0  0
129297  1  0  0  0  0
130298  1  0  0  0  0
131299  1  0  0  0  0
132300  1  0  0  0  0
133145  1  0  0  0  0
133193  1  0  0  0  0
133205  1  0  0  0  0
134146  1  0  0  0  0
134194  1  0  0  0  0
134206  1  0  0  0  0
135147  1  0  0  0  0
135195  1  0  0  0  0
135207  1  0  0  0  0
136148  1  0  0  0  0
136196  1  0  0  0  0
136208  1  0  0  0  0
137149  1  0  0  0  0
137197  1  0  0  0  0
137209  1  0  0  0  0
138150  1  0  0  0  0
138198  1  0  0  0  0
138210  1  0  0  0  0
139151  1  0  0  0  0
139199  1  0  0  0  0
139211  1  0  0  0  0
140152  1  0  0  0  0
140200  1  0  0  0  0
140212  1  0  0  0  0
141153  1  0  0  0  0
141201  1  0  0  0  0
141213  1  0  0  0  0
142154  1  0  0  0  0
142202  1  0  0  0  0
142214  1  0  0  0  0
143155  1  0  0  0  0
143203  1  0  0  0  0
143215  1  0  0  0  0
144156  1  0  0  0  0
144204  1  0  0  0  0
144216  1  0  0  0  0
145157  1  0  0  0  0
145499  1  0  0  0  0
146158  1  0  0  0  0
146500  1  0  0  0  0
147159  1  0  0  0  0
147501  1  0  0  0  0
148160  1  0  0  0  0
148502  1  0  0  0  0
149161  1  0  0  0  0
149503  1  0  0  0  0
150162  1  0  0  0  0
150504  1  0  0  0  0
151163  1  0  0  0  0
151505  1  0  0  0  0
152164  1  0  0  0  0
152506  1  0  0  0  0
153165  1  0  0  0  0
153507  1  0  0  0  0
154166  1  0  0  0  0
154508  1  0  0  0  0
155167  1  0  0  0  0
155509  1  0  0  0  0
156168  1  0  0  0  0
156510  1  0  0  0  0
157169  1  0  0  0  0
157511  1  0  0  0  0
158170  1  0  0  0  0
158512  1  0  0  0  0
159171  1  0  0  0  0
159513  1  0  0  0  0
160172  1  0  0  0  0
160514  1  0  0  0  0
161173  1  0  0  0  0
161515  1  0  0  0  0
162174  1  0  0  0  0
162516  1  0  0  0  0
163175  1  0  0  0  0
163517  1  0  0  0  0
164176  1  0  0  0  0
164518  1  0  0  0  0
165177  1  0  0  0  0
165519  1  0  0  0  0
166178  1  0  0  0  0
166520  1  0  0  0  0
167179  1  0  0  0  0
167521  1  0  0  0  0
168180  1  0  0  0  0
168522  1  0  0  0  0
169181  1  0  0  0  0
169217  1  0  0  0  0
170182  1  0  0  0  0
170218  1  0  0  0  0
171183  1  0  0  0  0
171219  1  0  0  0  0
172184  1  0  0  0  0
172220  1  0  0  0  0
173185  1  0  0  0  0
173221  1  0  0  0  0
174186  1  0  0  0  0
174222  1  0  0  0  0
175187  1  0  0  0  0
175223  1  0  0  0  0
176188  1  0  0  0  0
176224  1  0  0  0  0
177189  1  0  0  0  0
177225  1  0  0  0  0
178190  1  0  0  0  0
178226  1  0  0  0  0
179191  1  0  0  0  0
179227  1  0  0  0  0
180192  1  0  0  0  0
180228  1  0  0  0  0
181193  1  0  0  0  0
182194  1  0  0  0  0
183195  1  0  0  0  0
184196  1  0  0  0  0
185197  1  0  0  0  0
186198  1  0  0  0  0
187199  1  0  0  0  0
188200  1  0  0  0  0
189201  1  0  0  0  0
190202  1  0  0  0  0
191203  1  0  0  0  0
192204  1  0  0  0  0
205451  1  0  0  0  0
205463  1  0  0  0  0
206452  1  0  0  0  0
206464  1  0  0  0  0
207453  1  0  0  0  0
207465  1  0  0  0  0
208454  1  0  0  0  0
208466  1  0  0  0  0
209455  1  0  0  0  0
209467  1  0  0  0  0
210456  1  0  0  0  0
210468  1  0  0  0  0
211457  1  0  0  0  0
211469  1  0  0  0  0
212458  1  0  0  0  0
212470  1  0  0  0  0
213459  1  0  0  0  0
213471  1  0  0  0  0
214460  1  0  0  0  0
214472  1  0  0  0  0
215461  1  0  0  0  0
215473  1  0  0  0  0
216462  1  0  0  0  0
216474  1  0  0  0  0
217475  1  0  0  0  0
217487  1  0  0  0  0
218476  1  0  0  0  0
218488  1  0  0  0  0
219477  1  0  0  0  0
219489  1  0  0  0  0
220478  1  0  0  0  0
220490  1  0  0  0  0
221479  1  0  0  0  0
221491  1  0  0  0  0
222480  1  0  0  0  0
222492  1  0  0  0  0
223481  1  0  0  0  0
223493  1  0  0  0  0
224482  1  0  0  0  0
224494  1  0  0  0  0
225483  1  0  0  0  0
225495  1  0  0  0  0
226484  1  0  0  0  0
226496  1  0  0  0  0
227485  1  0  0  0  0
227497  1  0  0  0  0
228486  1  0  0  0  0
228498  1  0  0  0  0
229241  1  0  0  0  0
229289  1  0  0  0  0
229301  1  0  0  0  0
230242  1  0  0  0  0
230290  1  0  0  0  0
230302  1  0  0  0  0
231243  1  0  0  0  0
231291  1  0  0  0  0
231303  1  0  0  0  0
232244  1  0  0  0  0
232292  1  0  0  0  0
232304  1  0  0  0  0
233245  1  0  0  0  0
233293  1  0  0  0  0
233305  1  0  0  0  0
234246  1  0  0  0  0
234294  1  0  0  0  0
234306  1  0  0  0  0
235247  1  0  0  0  0
235295  1  0  0  0  0
235307  1  0  0  0  0
236248  1  0  0  0  0
236296  1  0  0  0  0
236308  1  0  0  0  0
237249  1  0  0  0  0
237297  1  0  0  0  0
237309  1  0  0  0  0
238250  1  0  0  0  0
238298  1  0  0  0  0
238310  1  0  0  0  0
239251  1  0  0  0  0
239299  1  0  0  0  0
239311  1  0  0  0  0
240252  1  0  0  0  0
240300  1  0  0  0  0
240312  1  0  0  0  0
241253  1  0  0  0  0
241571  1  0  0  0  0
242254  1  0  0  0  0
242572  1  0  0  0  0
243255  1  0  0  0  0
243573  1  0  0  0  0
244256  1  0  0  0  0
244574  1  0  0  0  0
245257  1  0  0  0  0
245575  1  0  0  0  0
246258  1  0  0  0  0
246576  1  0  0  0  0
247259  1  0  0  0  0
247577  1  0  0  0  0
248260  1  0  0  0  0
248578  1  0  0  0  0
249261  1  0  0  0  0
249579  1  0  0  0  0
250262  1  0  0  0  0
250580  1  0  0  0  0
251263  1  0  0  0  0
251581  1  0  0  0  0
252264  1  0  0  0  0
252582  1  0  0  0  0
253265  1  0  0  0  0
253583  1  0  0  0  0
254266  1  0  0  0  0
254584  1  0  0  0  0
255267  1  0  0  0  0
255585  1  0  0  0  0
256268  1  0  0  0  0
256586  1  0  0  0  0
257269  1  0  0  0  0
257587  1  0  0  0  0
258270  1  0  0  0  0
258588  1  0  0  0  0
259271  1  0  0  0  0
259589  1  0  0  0  0
260272  1  0  0  0  0
260590  1  0  0  0  0
261273  1  0  0  0  0
261591  1  0  0  0  0
262274  1  0  0  0  0
262592  1  0  0  0  0
263275  1  0  0  0  0
263593  1  0  0  0  0
264276  1  0  0  0  0
264594  1  0  0  0  0
265277  1  0  0  0  0
265313  1  0  0  0  0
266278  1  0  0  0  0
266314  1  0  0  0  0
267279  1  0  0  0  0
267315  1  0  0  0  0
268280  1  0  0  0  0
268316  1  0  0  0  0
269281  1  0  0  0  0
269317  1  0  0  0  0
270282  1  0  0  0  0
270318  1  0  0  0  0
271283  1  0  0  0  0
271319  1  0  0  0  0
272284  1  0  0  0  0
272320  1  0  0  0  0
273285  1  0  0  0  0
273321  1  0  0  0  0
274286  1  0  0  0  0
274322  1  0  0  0  0
275287  1  0  0  0  0
275323  1  0  0  0  0
276288  1  0  0  0  0
276324  1  0  0  0  0
277289  1  0  0  0  0
278290  1  0  0  0  0
279291  1  0  0  0  0
280292  1  0  0  0  0
281293  1  0  0  0  0
282294  1  0  0  0  0
283295  1  0  0  0  0
284296  1  0  0  0  0
285297  1  0  0  0  0
286298  1  0  0  0  0
287299  1  0  0  0  0
288300  1  0  0  0  0
301523  1  0  0  0  0
301535  1  0  0  0  0
302524  1  0  0  0  0
302536  1  0  0  0  0
303525  1  0  0  0  0
303537  1  0  0  0  0
304526  1  0  0  0  0
304538  1  0  0  0  0
305527  1  0  0  0  0
305539  1  0  0  0  0
306528  1  0  0  0  0
306540  1  0  0  0  0
307529  1  0  0  0  0
307541  1  0  0  0  0
308530  1  0  0  0  0
308542  1  0  0  0  0
309531  1  0  0  0  0
309543  1  0  0  0  0
310532  1  0  0  0  0
310544  1  0  0  0  0
311533  1  0  0  0  0
311545  1  0  0  0  0
312534  1  0  0  0  0
312546  1  0  0  0  0
313547  1  0  0  0  0
313559  1  0  0  0  0
314548  1  0  0  0  0
314560  1  0  0  0  0
315549  1  0  0  0  0
315561  1  0  0  0  0
316550  1  0  0  0  0
316562  1  0  0  0  0
317551  1  0  0  0  0
317563  1  0  0  0  0
318552  1  0  0  0  0
318564  1  0  0  0  0
319553  1  0  0  0  0
319565  1  0  0  0  0
320554  1  0  0  0  0
320566  1  0  0  0  0
321555  1  0  0  0  0
321567  1  0  0  0  0
322556  1  0  0  0  0
322568  1  0  0  0  0
323557  1  0  0  0  0
323569  1  0  0  0  0
324558  1  0  0  0  0
324570  1  0  0  0  0
325343  1  0  0  0  0
325415  1  0  0  0  0
326344  1  0  0  0  0
326416  1  0  0  0  0
327346  1  0  0  0  0
327417  1  0  0  0  0
328348  1  0  0  0  0
328418  1  0  0  0  0
329349  1  0  0  0  0
329419  1  0  0  0  0
330351  1  0  0  0  0
330420  1  0  0  0  0
331352  1  0  0  0  0
331421  1  0  0  0  0
332353  1  0  0  0  0
332422  1  0  0  0  0
333354  1  0  0  0  0
333423  1  0  0  0  0
334355  1  0  0  0  0
334424  1  0  0  0  0
335357  1  0  0  0  0
335425  1  0  0  0  0
336359  1  0  0  0  0
336426  1  0  0  0  0
337361  1  0  0  0  0
337427  1  0  0  0  0
338363  1  0  0  0  0
338428  1  0  0  0  0
339364  1  0  0  0  0
339429  1  0  0  0  0
340365  1  0  0  0  0
340430  1  0  0  0  0
341367  1  0  0  0  0
341431  1  0  0  0  0
342369  1  0  0  0  0
342432  1  0  0  0  0
343374  1  0  0  0  0
344375  1  0  0  0  0
345370  1  0  0  0  0
346371  1  0  0  0  0
347372  1  0  0  0  0
348373  1  0  0  0  0
349378  1  0  0  0  0
350376  1  0  0  0  0
351377  1  0  0  0  0
352387  1  0  0  0  0
353388  1  0  0  0  0
354389  1  0  0  0  0
355390  1  0  0  0  0
356379  1  0  0  0  0
357380  1  0  0  0  0
358381  1  0  0  0  0
359382  1  0  0  0  0
360383  1  0  0  0  0
361384  1  0  0  0  0
362385  1  0  0  0  0
363386  1  0  0  0  0
364395  1  0  0  0  0
365396  1  0  0  0  0
366391  1  0  0  0  0
367392  1  0  0  0  0
368393  1  0  0  0  0
369394  1  0  0  0  0
370397  1  0  0  0  0
372398  1  0  0  0  0
374399  1  0  0  0  0
375400  1  0  0  0  0
376401  1  0  0  0  0
378402  1  0  0  0  0
379403  1  0  0  0  0
381404  1  0  0  0  0
383405  1  0  0  0  0
385406  1  0  0  0  0
387407  1  0  0  0  0
388408  1  0  0  0  0
389409  1  0  0  0  0
390410  1  0  0  0  0
391411  1  0  0  0  0
393412  1  0  0  0  0
395413  1  0  0  0  0
396414  1  0  0  0  0
397433  1  0  0  0  0
398434  1  0  0  0  0
399435  1  0  0  0  0
400436  1  0  0  0  0
401437  1  0  0  0  0
402438  1  0  0  0  0
403439  1  0  0  0  0
404440  1  0  0  0  0
405441  1  0  0  0  0
406442  1  0  0  0  0
407443  1  0  0  0  0
408444  1  0  0  0  0
409445  1  0  0  0  0
410446  1  0  0  0  0
411447  1  0  0  0  0
412448  1  0  0  0  0
413449  1  0  0  0  0
414450  1  0  0  0  0
M  END
$$$$
