dobdc_zn2_paddlewheel_pillared_sql_bipy
AtomForge visual export

140144  0  0  0  0            999 V2000
   -0.1025    0.1025    5.4466 Zn  0  0  0  0  0  0  0  0  0  0  0  0
   -0.1025   11.0668    5.4466 Zn  0  0  0  0  0  0  0  0  0  0  0  0
   10.8618    0.1025    5.4466 Zn  0  0  0  0  0  0  0  0  0  0  0  0
   10.8618   11.0668    5.4466 Zn  0  0  0  0  0  0  0  0  0  0  0  0
   -0.0961    0.0961    7.9976 Zn  0  0  0  0  0  0  0  0  0  0  0  0
   -0.0961   11.0604    7.9976 Zn  0  0  0  0  0  0  0  0  0  0  0  0
   10.8682    0.0961    7.9976 Zn  0  0  0  0  0  0  0  0  0  0  0  0
   10.8682   11.0604    7.9976 Zn  0  0  0  0  0  0  0  0  0  0  0  0
    7.6546    0.1838    9.1348 H   0  0  0  0  0  0  0  0  0  0  0  0
    7.6546   11.1481    9.1348 H   0  0  0  0  0  0  0  0  0  0  0  0
    3.1233    0.0633    9.1391 H   0  0  0  0  0  0  0  0  0  0  0  0
    3.1233   11.0275    9.1391 H   0  0  0  0  0  0  0  0  0  0  0  0
    4.1410    0.1886    4.7230 H   0  0  0  0  0  0  0  0  0  0  0  0
    4.1410   11.1529    4.7230 H   0  0  0  0  0  0  0  0  0  0  0  0
    6.6171    0.1440    4.7187 H   0  0  0  0  0  0  0  0  0  0  0  0
    6.6171   11.1083    4.7187 H   0  0  0  0  0  0  0  0  0  0  0  0
   -0.0633    7.8409    9.1391 H   0  0  0  0  0  0  0  0  0  0  0  0
   10.9010    7.8409    9.1391 H   0  0  0  0  0  0  0  0  0  0  0  0
   -0.1839    3.3097    9.1348 H   0  0  0  0  0  0  0  0  0  0  0  0
   10.7804    3.3097    9.1348 H   0  0  0  0  0  0  0  0  0  0  0  0
   -0.1439    4.3472    4.7186 H   0  0  0  0  0  0  0  0  0  0  0  0
   10.8204    4.3472    4.7186 H   0  0  0  0  0  0  0  0  0  0  0  0
   -0.1886    6.8233    4.7229 H   0  0  0  0  0  0  0  0  0  0  0  0
   10.7757    6.8233    4.7229 H   0  0  0  0  0  0  0  0  0  0  0  0
    6.7947    0.1523    6.8473 C   0  0  0  0  0  0  0  0  0  0  0  0
    6.7947   11.1166    6.8473 C   0  0  0  0  0  0  0  0  0  0  0  0
    6.1010    0.1637    8.0601 C   0  0  0  0  0  0  0  0  0  0  0  0
    6.1010   11.1279    8.0601 C   0  0  0  0  0  0  0  0  0  0  0  0
    4.6738    0.1384    8.0620 C   0  0  0  0  0  0  0  0  0  0  0  0
    4.6738   11.1027    8.0620 C   0  0  0  0  0  0  0  0  0  0  0  0
    3.9702    0.1391    6.8544 C   0  0  0  0  0  0  0  0  0  0  0  0
    3.9702   11.1034    6.8544 C   0  0  0  0  0  0  0  0  0  0  0  0
    4.6935    0.1661    5.6492 C   0  0  0  0  0  0  0  0  0  0  0  0
    4.6935   11.1304    5.6492 C   0  0  0  0  0  0  0  0  0  0  0  0
    6.0644    0.1537    5.6449 C   0  0  0  0  0  0  0  0  0  0  0  0
    6.0644   11.1180    5.6449 C   0  0  0  0  0  0  0  0  0  0  0  0
    8.2904    0.1142    6.8085 C   0  0  0  0  0  0  0  0  0  0  0  0
    8.2904   11.0785    6.8085 C   0  0  0  0  0  0  0  0  0  0  0  0
    2.4741    0.1144    6.8345 C   0  0  0  0  0  0  0  0  0  0  0  0
    2.4741   11.0787    6.8345 C   0  0  0  0  0  0  0  0  0  0  0  0
   -0.1391    6.9941    6.8543 C   0  0  0  0  0  0  0  0  0  0  0  0
   10.8251    6.9941    6.8543 C   0  0  0  0  0  0  0  0  0  0  0  0
   -0.1384    6.2905    8.0620 C   0  0  0  0  0  0  0  0  0  0  0  0
   10.8258    6.2905    8.0620 C   0  0  0  0  0  0  0  0  0  0  0  0
   -0.1637    4.8632    8.0600 C   0  0  0  0  0  0  0  0  0  0  0  0
   10.8006    4.8632    8.0600 C   0  0  0  0  0  0  0  0  0  0  0  0
   -0.1523    4.1696    6.8472 C   0  0  0  0  0  0  0  0  0  0  0  0
   10.8120    4.1696    6.8472 C   0  0  0  0  0  0  0  0  0  0  0  0
   -0.1536    4.8999    5.6448 C   0  0  0  0  0  0  0  0  0  0  0  0
   10.8107    4.8999    5.6448 C   0  0  0  0  0  0  0  0  0  0  0  0
   -0.1661    6.2708    5.6491 C   0  0  0  0  0  0  0  0  0  0  0  0
   10.7982    6.2708    5.6491 C   0  0  0  0  0  0  0  0  0  0  0  0
   -0.1144    8.4902    6.8346 C   0  0  0  0  0  0  0  0  0  0  0  0
   10.8499    8.4902    6.8346 C   0  0  0  0  0  0  0  0  0  0  0  0
   -0.1141    2.6738    6.8085 C   0  0  0  0  0  0  0  0  0  0  0  0
   10.8501    2.6738    6.8085 C   0  0  0  0  0  0  0  0  0  0  0  0
   -0.1275    0.1275   -1.7006 C   0  0  0  0  0  0  0  0  0  0  0  0
   -0.1275    0.1275   12.3994 C   0  0  0  0  0  0  0  0  0  0  0  0
   -0.1275   11.0918   -1.7006 C   0  0  0  0  0  0  0  0  0  0  0  0
   -0.1275   11.0918   12.3994 C   0  0  0  0  0  0  0  0  0  0  0  0
   10.8368    0.1275   -1.7006 C   0  0  0  0  0  0  0  0  0  0  0  0
   10.8368    0.1275   12.3994 C   0  0  0  0  0  0  0  0  0  0  0  0
   10.8368   11.0918   -1.7006 C   0  0  0  0  0  0  0  0  0  0  0  0
   10.8368   11.0918   12.3994 C   0  0  0  0  0  0  0  0  0  0  0  0
   -0.0889    0.0889   -0.3335 C   0  0  0  0  0  0  0  0  0  0  0  0
   -0.0889    0.0889   13.7665 C   0  0  0  0  0  0  0  0  0  0  0  0
   -0.0889   11.0532   -0.3335 C   0  0  0  0  0  0  0  0  0  0  0  0
   -0.0889   11.0532   13.7665 C   0  0  0  0  0  0  0  0  0  0  0  0
   10.8754    0.0889   -0.3335 C   0  0  0  0  0  0  0  0  0  0  0  0
   10.8754    0.0889   13.7665 C   0  0  0  0  0  0  0  0  0  0  0  0
   10.8754   11.0532   -0.3335 C   0  0  0  0  0  0  0  0  0  0  0  0
   10.8754   11.0532   13.7665 C   0  0  0  0  0  0  0  0  0  0  0  0
   -0.0687    0.0687    0.8862 C   0  0  0  0  0  0  0  0  0  0  0  0
   -0.0687    0.0687   14.9862 C   0  0  0  0  0  0  0  0  0  0  0  0
   -0.0687   11.0330    0.8862 C   0  0  0  0  0  0  0  0  0  0  0  0
   -0.0687   11.0330   14.9862 C   0  0  0  0  0  0  0  0  0  0  0  0
   10.8956    0.0687    0.8862 C   0  0  0  0  0  0  0  0  0  0  0  0
   10.8956    0.0687   14.9862 C   0  0  0  0  0  0  0  0  0  0  0  0
   10.8956   11.0330    0.8862 C   0  0  0  0  0  0  0  0  0  0  0  0
   10.8956   11.0330   14.9862 C   0  0  0  0  0  0  0  0  0  0  0  0
   -0.0656    0.0657    2.2466 C   0  0  0  0  0  0  0  0  0  0  0  0
   -0.0656    0.0657   16.3466 C   0  0  0  0  0  0  0  0  0  0  0  0
   -0.0656   11.0300    2.2466 C   0  0  0  0  0  0  0  0  0  0  0  0
   -0.0656   11.0300   16.3466 C   0  0  0  0  0  0  0  0  0  0  0  0
   10.8986    0.0657    2.2466 C   0  0  0  0  0  0  0  0  0  0  0  0
   10.8986    0.0657   16.3466 C   0  0  0  0  0  0  0  0  0  0  0  0
   10.8986   11.0300    2.2466 C   0  0  0  0  0  0  0  0  0  0  0  0
   10.8986   11.0300   16.3466 C   0  0  0  0  0  0  0  0  0  0  0  0
   -0.1686    0.1686   -2.8499 N   0  0  0  0  0  0  0  0  0  0  0  0
   -0.1686    0.1686   11.2501 N   0  0  0  0  0  0  0  0  0  0  0  0
   -0.1686   11.1329   -2.8499 N   0  0  0  0  0  0  0  0  0  0  0  0
   -0.1686   11.1329   11.2501 N   0  0  0  0  0  0  0  0  0  0  0  0
   10.7957    0.1686   -2.8499 N   0  0  0  0  0  0  0  0  0  0  0  0
   10.7957    0.1686   11.2501 N   0  0  0  0  0  0  0  0  0  0  0  0
   10.7957   11.1329   -2.8499 N   0  0  0  0  0  0  0  0  0  0  0  0
   10.7957   11.1329   11.2501 N   0  0  0  0  0  0  0  0  0  0  0  0
   -0.0733    0.0734    3.3979 N   0  0  0  0  0  0  0  0  0  0  0  0
   -0.0733   11.0377    3.3979 N   0  0  0  0  0  0  0  0  0  0  0  0
   10.8909    0.0734    3.3979 N   0  0  0  0  0  0  0  0  0  0  0  0
   10.8909   11.0377    3.3979 N   0  0  0  0  0  0  0  0  0  0  0  0
   -2.0628    0.0940    7.9257 O   0  0  0  0  0  0  0  0  0  0  0  0
   -2.0628   11.0583    7.9257 O   0  0  0  0  0  0  0  0  0  0  0  0
    8.9014    0.0940    7.9257 O   0  0  0  0  0  0  0  0  0  0  0  0
    8.9014   11.0583    7.9257 O   0  0  0  0  0  0  0  0  0  0  0  0
   -2.0898    0.0942    5.7057 O   0  0  0  0  0  0  0  0  0  0  0  0
   -2.0898   11.0585    5.7057 O   0  0  0  0  0  0  0  0  0  0  0  0
    8.8745    0.0942    5.7057 O   0  0  0  0  0  0  0  0  0  0  0  0
    8.8745   11.0585    5.7057 O   0  0  0  0  0  0  0  0  0  0  0  0
    1.8716    0.0877    7.9572 O   0  0  0  0  0  0  0  0  0  0  0  0
    1.8716   11.0520    7.9572 O   0  0  0  0  0  0  0  0  0  0  0  0
   12.8358    0.0877    7.9572 O   0  0  0  0  0  0  0  0  0  0  0  0
   12.8358   11.0520    7.9572 O   0  0  0  0  0  0  0  0  0  0  0  0
    1.8829    0.1173    5.7357 O   0  0  0  0  0  0  0  0  0  0  0  0
    1.8829   11.0816    5.7357 O   0  0  0  0  0  0  0  0  0  0  0  0
   12.8471    0.1173    5.7357 O   0  0  0  0  0  0  0  0  0  0  0  0
   12.8471   11.0816    5.7357 O   0  0  0  0  0  0  0  0  0  0  0  0
    6.6837    0.1908    9.2602 O   0  0  0  0  0  0  0  0  0  0  0  0
    6.6837   11.1551    9.2602 O   0  0  0  0  0  0  0  0  0  0  0  0
    4.0966    0.1042    9.2638 O   0  0  0  0  0  0  0  0  0  0  0  0
    4.0966   11.0685    9.2638 O   0  0  0  0  0  0  0  0  0  0  0  0
   -0.0877   -1.8716    7.9572 O   0  0  0  0  0  0  0  0  0  0  0  0
   -0.0877    9.0927    7.9572 O   0  0  0  0  0  0  0  0  0  0  0  0
   10.8765   -1.8716    7.9572 O   0  0  0  0  0  0  0  0  0  0  0  0
   10.8765    9.0927    7.9572 O   0  0  0  0  0  0  0  0  0  0  0  0
   -0.1173   -1.8828    5.7357 O   0  0  0  0  0  0  0  0  0  0  0  0
   -0.1173    9.0815    5.7357 O   0  0  0  0  0  0  0  0  0  0  0  0
   10.8470   -1.8828    5.7357 O   0  0  0  0  0  0  0  0  0  0  0  0
   10.8470    9.0815    5.7357 O   0  0  0  0  0  0  0  0  0  0  0  0
   -0.0940    2.0628    7.9257 O   0  0  0  0  0  0  0  0  0  0  0  0
   -0.0940   13.0271    7.9257 O   0  0  0  0  0  0  0  0  0  0  0  0
   10.8702    2.0628    7.9257 O   0  0  0  0  0  0  0  0  0  0  0  0
   10.8702   13.0271    7.9257 O   0  0  0  0  0  0  0  0  0  0  0  0
   -0.0942    2.0898    5.7057 O   0  0  0  0  0  0  0  0  0  0  0  0
   -0.0942   13.0541    5.7057 O   0  0  0  0  0  0  0  0  0  0  0  0
   10.8700    2.0898    5.7057 O   0  0  0  0  0  0  0  0  0  0  0  0
   10.8700   13.0541    5.7057 O   0  0  0  0  0  0  0  0  0  0  0  0
   -0.1043    6.8676    9.2637 O   0  0  0  0  0  0  0  0  0  0  0  0
   10.8600    6.8676    9.2637 O   0  0  0  0  0  0  0  0  0  0  0  0
   -0.1909    4.2806    9.2601 O   0  0  0  0  0  0  0  0  0  0  0  0
   10.7734    4.2806    9.2601 O   0  0  0  0  0  0  0  0  0  0  0  0
  1 97  1  0  0  0  0
  1105  1  0  0  0  0
  1113  1  0  0  0  0
  1125  1  0  0  0  0
  1133  1  0  0  0  0
  2 98  1  0  0  0  0
  2106  1  0  0  0  0
  2114  1  0  0  0  0
  2126  1  0  0  0  0
  2134  1  0  0  0  0
  3 99  1  0  0  0  0
  3107  1  0  0  0  0
  3115  1  0  0  0  0
  3127  1  0  0  0  0
  3135  1  0  0  0  0
  4100  1  0  0  0  0
  4108  1  0  0  0  0
  4116  1  0  0  0  0
  4128  1  0  0  0  0
  4136  1  0  0  0  0
  5101  1  0  0  0  0
  5109  1  0  0  0  0
  5121  1  0  0  0  0
  5129  1  0  0  0  0
  6102  1  0  0  0  0
  6110  1  0  0  0  0
  6122  1  0  0  0  0
  6130  1  0  0  0  0
  7103  1  0  0  0  0
  7111  1  0  0  0  0
  7123  1  0  0  0  0
  7131  1  0  0  0  0
  8104  1  0  0  0  0
  8112  1  0  0  0  0
  8124  1  0  0  0  0
  8132  1  0  0  0  0
  9117  1  0  0  0  0
 10118  1  0  0  0  0
 11119  1  0  0  0  0
 12120  1  0  0  0  0
 13 33  1  0  0  0  0
 14 34  1  0  0  0  0
 15 35  1  0  0  0  0
 16 36  1  0  0  0  0
 17137  1  0  0  0  0
 18138  1  0  0  0  0
 19139  1  0  0  0  0
 20140  1  0  0  0  0
 21 49  1  0  0  0  0
 22 50  1  0  0  0  0
 23 51  1  0  0  0  0
 24 52  1  0  0  0  0
 25 27  1  0  0  0  0
 25 35  1  0  0  0  0
 25 37  1  0  0  0  0
 26 28  1  0  0  0  0
 26 36  1  0  0  0  0
 26 38  1  0  0  0  0
 27 29  1  0  0  0  0
 27117  1  0  0  0  0
 28 30  1  0  0  0  0
 28118  1  0  0  0  0
 29 31  1  0  0  0  0
 29119  1  0  0  0  0
 30 32  1  0  0  0  0
 30120  1  0  0  0  0
 31 33  1  0  0  0  0
 31 39  1  0  0  0  0
 32 34  1  0  0  0  0
 32 40  1  0  0  0  0
 33 35  1  0  0  0  0
 34 36  1  0  0  0  0
 37103  1  0  0  0  0
 37107  1  0  0  0  0
 38104  1  0  0  0  0
 38108  1  0  0  0  0
 39109  1  0  0  0  0
 39113  1  0  0  0  0
 40110  1  0  0  0  0
 40114  1  0  0  0  0
 41 43  1  0  0  0  0
 41 51  1  0  0  0  0
 41 53  1  0  0  0  0
 42 44  1  0  0  0  0
 42 52  1  0  0  0  0
 42 54  1  0  0  0  0
 43 45  1  0  0  0  0
 43137  1  0  0  0  0
 44 46  1  0  0  0  0
 44138  1  0  0  0  0
 45 47  1  0  0  0  0
 45139  1  0  0  0  0
 46 48  1  0  0  0  0
 46140  1  0  0  0  0
 47 49  1  0  0  0  0
 47 55  1  0  0  0  0
 48 50  1  0  0  0  0
 48 56  1  0  0  0  0
 49 51  1  0  0  0  0
 50 52  1  0  0  0  0
 53122  1  0  0  0  0
 53126  1  0  0  0  0
 54124  1  0  0  0  0
 54128  1  0  0  0  0
 55129  1  0  0  0  0
 55133  1  0  0  0  0
 56131  1  0  0  0  0
 56135  1  0  0  0  0
 57 65  1  0  0  0  0
 57 89  1  0  0  0  0
 58 66  1  0  0  0  0
 58 90  1  0  0  0  0
 59 67  1  0  0  0  0
 59 91  1  0  0  0  0
 60 68  1  0  0  0  0
 60 92  1  0  0  0  0
 61 69  1  0  0  0  0
 61 93  1  0  0  0  0
 62 70  1  0  0  0  0
 62 94  1  0  0  0  0
 63 71  1  0  0  0  0
 63 95  1  0  0  0  0
 64 72  1  0  0  0  0
 64 96  1  0  0  0  0
 65 73  1  0  0  0  0
 66 74  1  0  0  0  0
 67 75  1  0  0  0  0
 68 76  1  0  0  0  0
 69 77  1  0  0  0  0
 70 78  1  0  0  0  0
 71 79  1  0  0  0  0
 72 80  1  0  0  0  0
 73 81  1  0  0  0  0
 74 82  1  0  0  0  0
 75 83  1  0  0  0  0
 76 84  1  0  0  0  0
 77 85  1  0  0  0  0
 78 86  1  0  0  0  0
 79 87  1  0  0  0  0
 80 88  1  0  0  0  0
 81 97  1  0  0  0  0
 83 98  1  0  0  0  0
 85 99  1  0  0  0  0
 87100  1  0  0  0  0
M  END
$$$$
