@<TRIPOS>MOLECULE
dobdc_zn2_paddlewheel_pillared_sql_bipy
140 144 0 0 0
SMALL
NO_CHARGES

@<TRIPOS>ATOM
     1 Zn1        -0.102509     0.102501     5.446628 Zn   1 RES 0.0000
     2 Zn2        -0.102509    11.066784     5.446628 Zn   1 RES 0.0000
     3 Zn3        10.861775     0.102501     5.446628 Zn   1 RES 0.0000
     4 Zn4        10.861775    11.066784     5.446628 Zn   1 RES 0.0000
     5 Zn5        -0.096102     0.096089     7.997631 Zn   1 RES 0.0000
     6 Zn6        -0.096102    11.060373     7.997631 Zn   1 RES 0.0000
     7 Zn7        10.868181     0.096089     7.997631 Zn   1 RES 0.0000
     8 Zn8        10.868181    11.060373     7.997631 Zn   1 RES 0.0000
     9 H9         7.654644     0.183824     9.134831 H    1 RES 0.0000
    10 H10        7.654644    11.148107     9.134831 H    1 RES 0.0000
    11 H11        3.123340     0.063253     9.139096 H    1 RES 0.0000
    12 H12        3.123340    11.027536     9.139096 H    1 RES 0.0000
    13 H13        4.140957     0.188592     4.722986 H    1 RES 0.0000
    14 H14        4.140957    11.152875     4.722986 H    1 RES 0.0000
    15 H15        6.617073     0.143970     4.718674 H    1 RES 0.0000
    16 H16        6.617073    11.108253     4.718674 H    1 RES 0.0000
    17 H17       -0.063311     7.840922     9.139095 H    1 RES 0.0000
    18 H18       10.900972     7.840922     9.139095 H    1 RES 0.0000
    19 H19       -0.183878     3.309652     9.134775 H    1 RES 0.0000
    20 H20       10.780406     3.309652     9.134775 H    1 RES 0.0000
    21 H21       -0.143896     4.347225     4.718616 H    1 RES 0.0000
    22 H22       10.820387     4.347225     4.718616 H    1 RES 0.0000
    23 H23       -0.188612     6.823338     4.722927 H    1 RES 0.0000
    24 H24       10.775672     6.823338     4.722927 H    1 RES 0.0000
    25 C25        6.794720     0.152326     6.847314 C    1 RES 0.0000
    26 C26        6.794720    11.116609     6.847314 C    1 RES 0.0000
    27 C27        6.101040     0.163659     8.060115 C    1 RES 0.0000
    28 C28        6.101040    11.127943     8.060115 C    1 RES 0.0000
    29 C29        4.673835     0.138429     8.062032 C    1 RES 0.0000
    30 C30        4.673835    11.102712     8.062032 C    1 RES 0.0000
    31 C31        3.970165     0.139118     6.854364 C    1 RES 0.0000
    32 C32        3.970165    11.103401     6.854364 C    1 RES 0.0000
    33 C33        4.693491     0.166103     5.649151 C    1 RES 0.0000
    34 C34        4.693491    11.130387     5.649151 C    1 RES 0.0000
    35 C35        6.064376     0.153687     5.644868 C    1 RES 0.0000
    36 C36        6.064376    11.117970     5.644868 C    1 RES 0.0000
    37 C37        8.290431     0.114176     6.808541 C    1 RES 0.0000
    38 C38        8.290431    11.078459     6.808541 C    1 RES 0.0000
    39 C39        2.474115     0.114419     6.834537 C    1 RES 0.0000
    40 C40        2.474115    11.078703     6.834537 C    1 RES 0.0000
    41 C41       -0.139142     6.994127     6.854313 C    1 RES 0.0000
    42 C42       10.825141     6.994127     6.854313 C    1 RES 0.0000
    43 C43       -0.138440     6.290453     8.061980 C    1 RES 0.0000
    44 C44       10.825844     6.290453     8.061980 C    1 RES 0.0000
    45 C45       -0.163658     4.863241     8.060048 C    1 RES 0.0000
    46 C46       10.800625     4.863241     8.060048 C    1 RES 0.0000
    47 C47       -0.152295     4.169558     6.847250 C    1 RES 0.0000
    48 C48       10.811988     4.169558     6.847250 C    1 RES 0.0000
    49 C49       -0.153626     4.899920     5.644811 C    1 RES 0.0000
    50 C50       10.810657     4.899920     5.644811 C    1 RES 0.0000
    51 C51       -0.166071     6.270803     5.649099 C    1 RES 0.0000
    52 C52       10.798212     6.270803     5.649099 C    1 RES 0.0000
    53 C53       -0.114423     8.490171     6.834561 C    1 RES 0.0000
    54 C54       10.849861     8.490171     6.834561 C    1 RES 0.0000
    55 C55       -0.114141     2.673846     6.808542 C    1 RES 0.0000
    56 C56       10.850143     2.673846     6.808542 C    1 RES 0.0000
    57 C57       -0.127524     0.127543    -1.700559 C    1 RES 0.0000
    58 C58       -0.127524     0.127543    12.399441 C    1 RES 0.0000
    59 C59       -0.127524    11.091826    -1.700559 C    1 RES 0.0000
    60 C60       -0.127524    11.091826    12.399441 C    1 RES 0.0000
    61 C61       10.836759     0.127543    -1.700559 C    1 RES 0.0000
    62 C62       10.836759     0.127543    12.399441 C    1 RES 0.0000
    63 C63       10.836759    11.091826    -1.700559 C    1 RES 0.0000
    64 C64       10.836759    11.091826    12.399441 C    1 RES 0.0000
    65 C65       -0.088918     0.088935    -0.333505 C    1 RES 0.0000
    66 C66       -0.088918     0.088935    13.766495 C    1 RES 0.0000
    67 C67       -0.088918    11.053219    -0.333505 C    1 RES 0.0000
    68 C68       -0.088918    11.053219    13.766495 C    1 RES 0.0000
    69 C69       10.875365     0.088935    -0.333505 C    1 RES 0.0000
    70 C70       10.875365     0.088935    13.766495 C    1 RES 0.0000
    71 C71       10.875365    11.053219    -0.333505 C    1 RES 0.0000
    72 C72       10.875365    11.053219    13.766495 C    1 RES 0.0000
    73 C73       -0.068662     0.068692     0.886207 C    1 RES 0.0000
    74 C74       -0.068662     0.068692    14.986207 C    1 RES 0.0000
    75 C75       -0.068662    11.032975     0.886207 C    1 RES 0.0000
    76 C76       -0.068662    11.032975    14.986207 C    1 RES 0.0000
    77 C77       10.895621     0.068692     0.886207 C    1 RES 0.0000
    78 C78       10.895621     0.068692    14.986207 C    1 RES 0.0000
    79 C79       10.895621    11.032975     0.886207 C    1 RES 0.0000
    80 C80       10.895621    11.032975    14.986207 C    1 RES 0.0000
    81 C81       -0.065647     0.065679     2.246612 C    1 RES 0.0000
    82 C82       -0.065647     0.065679    16.346612 C    1 RES 0.0000
    83 C83       -0.065647    11.029962     2.246612 C    1 RES 0.0000
    84 C84       -0.065647    11.029962    16.346612 C    1 RES 0.0000
    85 C85       10.898636     0.065679     2.246612 C    1 RES 0.0000
    86 C86       10.898636     0.065679    16.346612 C    1 RES 0.0000
    87 C87       10.898636    11.029962     2.246612 C    1 RES 0.0000
    88 C88       10.898636    11.029962    16.346612 C    1 RES 0.0000
    89 N89       -0.168598     0.168624    -2.849924 N    1 RES 0.0000
    90 N90       -0.168598     0.168624    11.250076 N    1 RES 0.0000
    91 N91       -0.168598    11.132907    -2.849924 N    1 RES 0.0000
    92 N92       -0.168598    11.132907    11.250076 N    1 RES 0.0000
    93 N93       10.795685     0.168624    -2.849924 N    1 RES 0.0000
    94 N94       10.795685     0.168624    11.250076 N    1 RES 0.0000
    95 N95       10.795685    11.132907    -2.849924 N    1 RES 0.0000
    96 N96       10.795685    11.132907    11.250076 N    1 RES 0.0000
    97 N97       -0.073338     0.073368     3.397938 N    1 RES 0.0000
    98 N98       -0.073338    11.037652     3.397938 N    1 RES 0.0000
    99 N99       10.890945     0.073368     3.397938 N    1 RES 0.0000
   100 N100      10.890945    11.037652     3.397938 N    1 RES 0.0000
   101 O101      -2.062839     0.094048     7.925699 O    1 RES 0.0000
   102 O102      -2.062839    11.058332     7.925699 O    1 RES 0.0000
   103 O103       8.901445     0.094048     7.925699 O    1 RES 0.0000
   104 O104       8.901445    11.058332     7.925699 O    1 RES 0.0000
   105 O105      -2.089832     0.094245     5.705729 O    1 RES 0.0000
   106 O106      -2.089832    11.058528     5.705729 O    1 RES 0.0000
   107 O107       8.874452     0.094245     5.705729 O    1 RES 0.0000
   108 O108       8.874452    11.058528     5.705729 O    1 RES 0.0000
   109 O109       1.871552     0.087686     7.957208 O    1 RES 0.0000
   110 O110       1.871552    11.051969     7.957208 O    1 RES 0.0000
   111 O111      12.835835     0.087686     7.957208 O    1 RES 0.0000
   112 O112      12.835835    11.051969     7.957208 O    1 RES 0.0000
   113 O113       1.882852     0.117269     5.735702 O    1 RES 0.0000
   114 O114       1.882852    11.081552     5.735702 O    1 RES 0.0000
   115 O115      12.847136     0.117269     5.735702 O    1 RES 0.0000
   116 O116      12.847136    11.081552     5.735702 O    1 RES 0.0000
   117 O117       6.683721     0.190817     9.260211 O    1 RES 0.0000
   118 O118       6.683721    11.155100     9.260211 O    1 RES 0.0000
   119 O119       4.096629     0.104199     9.263781 O    1 RES 0.0000
   120 O120       4.096629    11.068483     9.263781 O    1 RES 0.0000
   121 O121      -0.087739    -1.871572     7.957193 O    1 RES 0.0000
   122 O122      -0.087739     9.092711     7.957193 O    1 RES 0.0000
   123 O123      10.876545    -1.871572     7.957193 O    1 RES 0.0000
   124 O124      10.876545     9.092711     7.957193 O    1 RES 0.0000
   125 O125      -0.117303    -1.882800     5.735682 O    1 RES 0.0000
   126 O126      -0.117303     9.081483     5.735682 O    1 RES 0.0000
   127 O127      10.846980    -1.882800     5.735682 O    1 RES 0.0000
   128 O128      10.846980     9.081483     5.735682 O    1 RES 0.0000
   129 O129      -0.094043     2.062849     7.925673 O    1 RES 0.0000
   130 O130      -0.094043    13.027132     7.925673 O    1 RES 0.0000
   131 O131      10.870240     2.062849     7.925673 O    1 RES 0.0000
   132 O132      10.870240    13.027132     7.925673 O    1 RES 0.0000
   133 O133      -0.094235     2.089789     5.705680 O    1 RES 0.0000
   134 O134      -0.094235    13.054072     5.705680 O    1 RES 0.0000
   135 O135      10.870049     2.089789     5.705680 O    1 RES 0.0000
   136 O136      10.870049    13.054072     5.705680 O    1 RES 0.0000
   137 O137      -0.104262     6.867623     9.263743 O    1 RES 0.0000
   138 O138      10.860021     6.867623     9.263743 O    1 RES 0.0000
   139 O139      -0.190898     4.280576     9.260145 O    1 RES 0.0000
   140 O140      10.773386     4.280576     9.260145 O    1 RES 0.0000
@<TRIPOS>BOND
     1      1     97 1
     2      1    105 1
     3      1    113 1
     4      1    125 1
     5      1    133 1
     6      2     98 1
     7      2    106 1
     8      2    114 1
     9      2    126 1
    10      2    134 1
    11      3     99 1
    12      3    107 1
    13      3    115 1
    14      3    127 1
    15      3    135 1
    16      4    100 1
    17      4    108 1
    18      4    116 1
    19      4    128 1
    20      4    136 1
    21      5    101 1
    22      5    109 1
    23      5    121 1
    24      5    129 1
    25      6    102 1
    26      6    110 1
    27      6    122 1
    28      6    130 1
    29      7    103 1
    30      7    111 1
    31      7    123 1
    32      7    131 1
    33      8    104 1
    34      8    112 1
    35      8    124 1
    36      8    132 1
    37      9    117 1
    38     10    118 1
    39     11    119 1
    40     12    120 1
    41     13     33 1
    42     14     34 1
    43     15     35 1
    44     16     36 1
    45     17    137 1
    46     18    138 1
    47     19    139 1
    48     20    140 1
    49     21     49 1
    50     22     50 1
    51     23     51 1
    52     24     52 1
    53     25     27 1
    54     25     35 1
    55     25     37 1
    56     26     28 1
    57     26     36 1
    58     26     38 1
    59     27     29 1
    60     27    117 1
    61     28     30 1
    62     28    118 1
    63     29     31 1
    64     29    119 1
    65     30     32 1
    66     30    120 1
    67     31     33 1
    68     31     39 1
    69     32     34 1
    70     32     40 1
    71     33     35 1
    72     34     36 1
    73     37    103 1
    74     37    107 1
    75     38    104 1
    76     38    108 1
    77     39    109 1
    78     39    113 1
    79     40    110 1
    80     40    114 1
    81     41     43 1
    82     41     51 1
    83     41     53 1
    84     42     44 1
    85     42     52 1
    86     42     54 1
    87     43     45 1
    88     43    137 1
    89     44     46 1
    90     44    138 1
    91     45     47 1
    92     45    139 1
    93     46     48 1
    94     46    140 1
    95     47     49 1
    96     47     55 1
    97     48     50 1
    98     48     56 1
    99     49     51 1
   100     50     52 1
   101     53    122 1
   102     53    126 1
   103     54    124 1
   104     54    128 1
   105     55    129 1
   106     55    133 1
   107     56    131 1
   108     56    135 1
   109     57     65 1
   110     57     89 1
   111     58     66 1
   112     58     90 1
   113     59     67 1
   114     59     91 1
   115     60     68 1
   116     60     92 1
   117     61     69 1
   118     61     93 1
   119     62     70 1
   120     62     94 1
   121     63     71 1
   122     63     95 1
   123     64     72 1
   124     64     96 1
   125     65     73 1
   126     66     74 1
   127     67     75 1
   128     68     76 1
   129     69     77 1
   130     70     78 1
   131     71     79 1
   132     72     80 1
   133     73     81 1
   134     74     82 1
   135     75     83 1
   136     76     84 1
   137     77     85 1
   138     78     86 1
   139     79     87 1
   140     80     88 1
   141     81     97 1
   142     83     98 1
   143     85     99 1
   144     87    100 1
