dobdc_zn2_paddlewheel_pillared_sql_bipy
AtomForge visual export

297318  0  0  0  0            999 V2000
   10.8618    0.1025    5.4466 Zn  0  0  0  0  0  0  0  0  0  0  0  0
   10.8618   22.0311    5.4466 Zn  0  0  0  0  0  0  0  0  0  0  0  0
   10.8618   11.0668    5.4466 Zn  0  0  0  0  0  0  0  0  0  0  0  0
   -0.1025    0.1025    5.4466 Zn  0  0  0  0  0  0  0  0  0  0  0  0
   -0.1025   22.0311    5.4466 Zn  0  0  0  0  0  0  0  0  0  0  0  0
   21.8261    0.1025    5.4466 Zn  0  0  0  0  0  0  0  0  0  0  0  0
   21.8261   22.0311    5.4466 Zn  0  0  0  0  0  0  0  0  0  0  0  0
   -0.1025   11.0668    5.4466 Zn  0  0  0  0  0  0  0  0  0  0  0  0
   21.8261   11.0668    5.4466 Zn  0  0  0  0  0  0  0  0  0  0  0  0
   10.8682    0.0961    7.9976 Zn  0  0  0  0  0  0  0  0  0  0  0  0
   10.8682   22.0247    7.9976 Zn  0  0  0  0  0  0  0  0  0  0  0  0
   10.8682   11.0604    7.9976 Zn  0  0  0  0  0  0  0  0  0  0  0  0
   -0.0961    0.0961    7.9976 Zn  0  0  0  0  0  0  0  0  0  0  0  0
   -0.0961   22.0247    7.9976 Zn  0  0  0  0  0  0  0  0  0  0  0  0
   21.8325    0.0961    7.9976 Zn  0  0  0  0  0  0  0  0  0  0  0  0
   21.8325   22.0247    7.9976 Zn  0  0  0  0  0  0  0  0  0  0  0  0
   -0.0961   11.0604    7.9976 Zn  0  0  0  0  0  0  0  0  0  0  0  0
   21.8325   11.0604    7.9976 Zn  0  0  0  0  0  0  0  0  0  0  0  0
    7.6546    0.1838    9.1348 H   0  0  0  0  0  0  0  0  0  0  0  0
    7.6546   22.1124    9.1348 H   0  0  0  0  0  0  0  0  0  0  0  0
    7.6546   11.1481    9.1348 H   0  0  0  0  0  0  0  0  0  0  0  0
   18.6189    0.1838    9.1348 H   0  0  0  0  0  0  0  0  0  0  0  0
   18.6189   22.1124    9.1348 H   0  0  0  0  0  0  0  0  0  0  0  0
   18.6189   11.1481    9.1348 H   0  0  0  0  0  0  0  0  0  0  0  0
    3.1233    0.0633    9.1391 H   0  0  0  0  0  0  0  0  0  0  0  0
    3.1233   21.9918    9.1391 H   0  0  0  0  0  0  0  0  0  0  0  0
    3.1233   11.0275    9.1391 H   0  0  0  0  0  0  0  0  0  0  0  0
   14.0876    0.0633    9.1391 H   0  0  0  0  0  0  0  0  0  0  0  0
   14.0876   21.9918    9.1391 H   0  0  0  0  0  0  0  0  0  0  0  0
   14.0876   11.0275    9.1391 H   0  0  0  0  0  0  0  0  0  0  0  0
    4.1410    0.1886    4.7230 H   0  0  0  0  0  0  0  0  0  0  0  0
    4.1410   22.1172    4.7230 H   0  0  0  0  0  0  0  0  0  0  0  0
    4.1410   11.1529    4.7230 H   0  0  0  0  0  0  0  0  0  0  0  0
   15.1052    0.1886    4.7230 H   0  0  0  0  0  0  0  0  0  0  0  0
   15.1052   22.1172    4.7230 H   0  0  0  0  0  0  0  0  0  0  0  0
   15.1052   11.1529    4.7230 H   0  0  0  0  0  0  0  0  0  0  0  0
    6.6171    0.1440    4.7187 H   0  0  0  0  0  0  0  0  0  0  0  0
    6.6171   22.0725    4.7187 H   0  0  0  0  0  0  0  0  0  0  0  0
    6.6171   11.1083    4.7187 H   0  0  0  0  0  0  0  0  0  0  0  0
   17.5814    0.1440    4.7187 H   0  0  0  0  0  0  0  0  0  0  0  0
   17.5814   22.0725    4.7187 H   0  0  0  0  0  0  0  0  0  0  0  0
   17.5814   11.1083    4.7187 H   0  0  0  0  0  0  0  0  0  0  0  0
   10.9010    7.8409    9.1391 H   0  0  0  0  0  0  0  0  0  0  0  0
   10.9010   18.8052    9.1391 H   0  0  0  0  0  0  0  0  0  0  0  0
   -0.0633    7.8409    9.1391 H   0  0  0  0  0  0  0  0  0  0  0  0
   21.8653    7.8409    9.1391 H   0  0  0  0  0  0  0  0  0  0  0  0
   -0.0633   18.8052    9.1391 H   0  0  0  0  0  0  0  0  0  0  0  0
   21.8653   18.8052    9.1391 H   0  0  0  0  0  0  0  0  0  0  0  0
   10.7804    3.3097    9.1348 H   0  0  0  0  0  0  0  0  0  0  0  0
   10.7804   14.2739    9.1348 H   0  0  0  0  0  0  0  0  0  0  0  0
   -0.1839    3.3097    9.1348 H   0  0  0  0  0  0  0  0  0  0  0  0
   21.7447    3.3097    9.1348 H   0  0  0  0  0  0  0  0  0  0  0  0
   -0.1839   14.2739    9.1348 H   0  0  0  0  0  0  0  0  0  0  0  0
   21.7447   14.2739    9.1348 H   0  0  0  0  0  0  0  0  0  0  0  0
   10.8204    4.3472    4.7186 H   0  0  0  0  0  0  0  0  0  0  0  0
   10.8204   15.3115    4.7186 H   0  0  0  0  0  0  0  0  0  0  0  0
   -0.1439    4.3472    4.7186 H   0  0  0  0  0  0  0  0  0  0  0  0
   21.7847    4.3472    4.7186 H   0  0  0  0  0  0  0  0  0  0  0  0
   -0.1439   15.3115    4.7186 H   0  0  0  0  0  0  0  0  0  0  0  0
   21.7847   15.3115    4.7186 H   0  0  0  0  0  0  0  0  0  0  0  0
   10.7757    6.8233    4.7229 H   0  0  0  0  0  0  0  0  0  0  0  0
   10.7757   17.7876    4.7229 H   0  0  0  0  0  0  0  0  0  0  0  0
   -0.1886    6.8233    4.7229 H   0  0  0  0  0  0  0  0  0  0  0  0
   21.7400    6.8233    4.7229 H   0  0  0  0  0  0  0  0  0  0  0  0
   -0.1886   17.7876    4.7229 H   0  0  0  0  0  0  0  0  0  0  0  0
   21.7400   17.7876    4.7229 H   0  0  0  0  0  0  0  0  0  0  0  0
    6.7947    0.1523    6.8473 C   0  0  0  0  0  0  0  0  0  0  0  0
    6.7947   22.0809    6.8473 C   0  0  0  0  0  0  0  0  0  0  0  0
    6.7947   11.1166    6.8473 C   0  0  0  0  0  0  0  0  0  0  0  0
   17.7590    0.1523    6.8473 C   0  0  0  0  0  0  0  0  0  0  0  0
   17.7590   22.0809    6.8473 C   0  0  0  0  0  0  0  0  0  0  0  0
   17.7590   11.1166    6.8473 C   0  0  0  0  0  0  0  0  0  0  0  0
    6.1010    0.1637    8.0601 C   0  0  0  0  0  0  0  0  0  0  0  0
    6.1010   22.0922    8.0601 C   0  0  0  0  0  0  0  0  0  0  0  0
    6.1010   11.1279    8.0601 C   0  0  0  0  0  0  0  0  0  0  0  0
   17.0653    0.1637    8.0601 C   0  0  0  0  0  0  0  0  0  0  0  0
   17.0653   22.0922    8.0601 C   0  0  0  0  0  0  0  0  0  0  0  0
   17.0653   11.1279    8.0601 C   0  0  0  0  0  0  0  0  0  0  0  0
    4.6738    0.1384    8.0620 C   0  0  0  0  0  0  0  0  0  0  0  0
    4.6738   22.0670    8.0620 C   0  0  0  0  0  0  0  0  0  0  0  0
    4.6738   11.1027    8.0620 C   0  0  0  0  0  0  0  0  0  0  0  0
   15.6381    0.1384    8.0620 C   0  0  0  0  0  0  0  0  0  0  0  0
   15.6381   22.0670    8.0620 C   0  0  0  0  0  0  0  0  0  0  0  0
   15.6381   11.1027    8.0620 C   0  0  0  0  0  0  0  0  0  0  0  0
    3.9702    0.1391    6.8544 C   0  0  0  0  0  0  0  0  0  0  0  0
    3.9702   22.0677    6.8544 C   0  0  0  0  0  0  0  0  0  0  0  0
    3.9702   11.1034    6.8544 C   0  0  0  0  0  0  0  0  0  0  0  0
   14.9344    0.1391    6.8544 C   0  0  0  0  0  0  0  0  0  0  0  0
   14.9344   22.0677    6.8544 C   0  0  0  0  0  0  0  0  0  0  0  0
   14.9344   11.1034    6.8544 C   0  0  0  0  0  0  0  0  0  0  0  0
    4.6935    0.1661    5.6492 C   0  0  0  0  0  0  0  0  0  0  0  0
    4.6935   22.0947    5.6492 C   0  0  0  0  0  0  0  0  0  0  0  0
    4.6935   11.1304    5.6492 C   0  0  0  0  0  0  0  0  0  0  0  0
   15.6578    0.1661    5.6492 C   0  0  0  0  0  0  0  0  0  0  0  0
   15.6578   22.0947    5.6492 C   0  0  0  0  0  0  0  0  0  0  0  0
   15.6578   11.1304    5.6492 C   0  0  0  0  0  0  0  0  0  0  0  0
    6.0644    0.1537    5.6449 C   0  0  0  0  0  0  0  0  0  0  0  0
    6.0644   22.0823    5.6449 C   0  0  0  0  0  0  0  0  0  0  0  0
    6.0644   11.1180    5.6449 C   0  0  0  0  0  0  0  0  0  0  0  0
   17.0287    0.1537    5.6449 C   0  0  0  0  0  0  0  0  0  0  0  0
   17.0287   22.0823    5.6449 C   0  0  0  0  0  0  0  0  0  0  0  0
   17.0287   11.1180    5.6449 C   0  0  0  0  0  0  0  0  0  0  0  0
    8.2904    0.1142    6.8085 C   0  0  0  0  0  0  0  0  0  0  0  0
    8.2904   22.0427    6.8085 C   0  0  0  0  0  0  0  0  0  0  0  0
    8.2904   11.0785    6.8085 C   0  0  0  0  0  0  0  0  0  0  0  0
   19.2547    0.1142    6.8085 C   0  0  0  0  0  0  0  0  0  0  0  0
   19.2547   22.0427    6.8085 C   0  0  0  0  0  0  0  0  0  0  0  0
   19.2547   11.0785    6.8085 C   0  0  0  0  0  0  0  0  0  0  0  0
    2.4741    0.1144    6.8345 C   0  0  0  0  0  0  0  0  0  0  0  0
    2.4741   22.0430    6.8345 C   0  0  0  0  0  0  0  0  0  0  0  0
    2.4741   11.0787    6.8345 C   0  0  0  0  0  0  0  0  0  0  0  0
   13.4384    0.1144    6.8345 C   0  0  0  0  0  0  0  0  0  0  0  0
   13.4384   22.0430    6.8345 C   0  0  0  0  0  0  0  0  0  0  0  0
   13.4384   11.0787    6.8345 C   0  0  0  0  0  0  0  0  0  0  0  0
   10.8251    6.9941    6.8543 C   0  0  0  0  0  0  0  0  0  0  0  0
   10.8251   17.9584    6.8543 C   0  0  0  0  0  0  0  0  0  0  0  0
   -0.1391    6.9941    6.8543 C   0  0  0  0  0  0  0  0  0  0  0  0
   21.7894    6.9941    6.8543 C   0  0  0  0  0  0  0  0  0  0  0  0
   -0.1391   17.9584    6.8543 C   0  0  0  0  0  0  0  0  0  0  0  0
   21.7894   17.9584    6.8543 C   0  0  0  0  0  0  0  0  0  0  0  0
   10.8258    6.2905    8.0620 C   0  0  0  0  0  0  0  0  0  0  0  0
   10.8258   17.2547    8.0620 C   0  0  0  0  0  0  0  0  0  0  0  0
   -0.1384    6.2905    8.0620 C   0  0  0  0  0  0  0  0  0  0  0  0
   21.7901    6.2905    8.0620 C   0  0  0  0  0  0  0  0  0  0  0  0
   -0.1384   17.2547    8.0620 C   0  0  0  0  0  0  0  0  0  0  0  0
   21.7901   17.2547    8.0620 C   0  0  0  0  0  0  0  0  0  0  0  0
   10.8006    4.8632    8.0600 C   0  0  0  0  0  0  0  0  0  0  0  0
   10.8006   15.8275    8.0600 C   0  0  0  0  0  0  0  0  0  0  0  0
   -0.1637    4.8632    8.0600 C   0  0  0  0  0  0  0  0  0  0  0  0
   21.7649    4.8632    8.0600 C   0  0  0  0  0  0  0  0  0  0  0  0
   -0.1637   15.8275    8.0600 C   0  0  0  0  0  0  0  0  0  0  0  0
   21.7649   15.8275    8.0600 C   0  0  0  0  0  0  0  0  0  0  0  0
   10.8120    4.1696    6.8472 C   0  0  0  0  0  0  0  0  0  0  0  0
   10.8120   15.1338    6.8472 C   0  0  0  0  0  0  0  0  0  0  0  0
   -0.1523    4.1696    6.8472 C   0  0  0  0  0  0  0  0  0  0  0  0
   21.7763    4.1696    6.8472 C   0  0  0  0  0  0  0  0  0  0  0  0
   -0.1523   15.1338    6.8472 C   0  0  0  0  0  0  0  0  0  0  0  0
   21.7763   15.1338    6.8472 C   0  0  0  0  0  0  0  0  0  0  0  0
   10.8107    4.8999    5.6448 C   0  0  0  0  0  0  0  0  0  0  0  0
   10.8107   15.8642    5.6448 C   0  0  0  0  0  0  0  0  0  0  0  0
   -0.1536    4.8999    5.6448 C   0  0  0  0  0  0  0  0  0  0  0  0
   21.7749    4.8999    5.6448 C   0  0  0  0  0  0  0  0  0  0  0  0
   -0.1536   15.8642    5.6448 C   0  0  0  0  0  0  0  0  0  0  0  0
   21.7749   15.8642    5.6448 C   0  0  0  0  0  0  0  0  0  0  0  0
   10.7982    6.2708    5.6491 C   0  0  0  0  0  0  0  0  0  0  0  0
   10.7982   17.2351    5.6491 C   0  0  0  0  0  0  0  0  0  0  0  0
   -0.1661    6.2708    5.6491 C   0  0  0  0  0  0  0  0  0  0  0  0
   21.7625    6.2708    5.6491 C   0  0  0  0  0  0  0  0  0  0  0  0
   -0.1661   17.2351    5.6491 C   0  0  0  0  0  0  0  0  0  0  0  0
   21.7625   17.2351    5.6491 C   0  0  0  0  0  0  0  0  0  0  0  0
   10.8499    8.4902    6.8346 C   0  0  0  0  0  0  0  0  0  0  0  0
   10.8499   19.4545    6.8346 C   0  0  0  0  0  0  0  0  0  0  0  0
   -0.1144    8.4902    6.8346 C   0  0  0  0  0  0  0  0  0  0  0  0
   21.8141    8.4902    6.8346 C   0  0  0  0  0  0  0  0  0  0  0  0
   -0.1144   19.4545    6.8346 C   0  0  0  0  0  0  0  0  0  0  0  0
   21.8141   19.4545    6.8346 C   0  0  0  0  0  0  0  0  0  0  0  0
   10.8501    2.6738    6.8085 C   0  0  0  0  0  0  0  0  0  0  0  0
   10.8501   13.6381    6.8085 C   0  0  0  0  0  0  0  0  0  0  0  0
   -0.1141    2.6738    6.8085 C   0  0  0  0  0  0  0  0  0  0  0  0
   21.8144    2.6738    6.8085 C   0  0  0  0  0  0  0  0  0  0  0  0
   -0.1141   13.6381    6.8085 C   0  0  0  0  0  0  0  0  0  0  0  0
   21.8144   13.6381    6.8085 C   0  0  0  0  0  0  0  0  0  0  0  0
   10.8368    0.1275   12.3994 C   0  0  0  0  0  0  0  0  0  0  0  0
   10.8368   22.0561   12.3994 C   0  0  0  0  0  0  0  0  0  0  0  0
   10.8368   11.0918   12.3994 C   0  0  0  0  0  0  0  0  0  0  0  0
   -0.1275    0.1275   12.3994 C   0  0  0  0  0  0  0  0  0  0  0  0
   -0.1275   22.0561   12.3994 C   0  0  0  0  0  0  0  0  0  0  0  0
   21.8010    0.1275   12.3994 C   0  0  0  0  0  0  0  0  0  0  0  0
   21.8010   22.0561   12.3994 C   0  0  0  0  0  0  0  0  0  0  0  0
   -0.1275   11.0918   12.3994 C   0  0  0  0  0  0  0  0  0  0  0  0
   21.8010   11.0918   12.3994 C   0  0  0  0  0  0  0  0  0  0  0  0
   10.8754    0.0889   -0.3335 C   0  0  0  0  0  0  0  0  0  0  0  0
   10.8754    0.0889   13.7665 C   0  0  0  0  0  0  0  0  0  0  0  0
   10.8754   22.0175   -0.3335 C   0  0  0  0  0  0  0  0  0  0  0  0
   10.8754   22.0175   13.7665 C   0  0  0  0  0  0  0  0  0  0  0  0
   10.8754   11.0532   -0.3335 C   0  0  0  0  0  0  0  0  0  0  0  0
   10.8754   11.0532   13.7665 C   0  0  0  0  0  0  0  0  0  0  0  0
   -0.0889    0.0889   -0.3335 C   0  0  0  0  0  0  0  0  0  0  0  0
   -0.0889    0.0889   13.7665 C   0  0  0  0  0  0  0  0  0  0  0  0
   -0.0889   22.0175   -0.3335 C   0  0  0  0  0  0  0  0  0  0  0  0
   -0.0889   22.0175   13.7665 C   0  0  0  0  0  0  0  0  0  0  0  0
   21.8396    0.0889   -0.3335 C   0  0  0  0  0  0  0  0  0  0  0  0
   21.8396    0.0889   13.7665 C   0  0  0  0  0  0  0  0  0  0  0  0
   21.8396   22.0175   -0.3335 C   0  0  0  0  0  0  0  0  0  0  0  0
   21.8396   22.0175   13.7665 C   0  0  0  0  0  0  0  0  0  0  0  0
   -0.0889   11.0532   -0.3335 C   0  0  0  0  0  0  0  0  0  0  0  0
   -0.0889   11.0532   13.7665 C   0  0  0  0  0  0  0  0  0  0  0  0
   21.8396   11.0532   -0.3335 C   0  0  0  0  0  0  0  0  0  0  0  0
   21.8396   11.0532   13.7665 C   0  0  0  0  0  0  0  0  0  0  0  0
   10.8956    0.0687    0.8862 C   0  0  0  0  0  0  0  0  0  0  0  0
   10.8956   21.9973    0.8862 C   0  0  0  0  0  0  0  0  0  0  0  0
   10.8956   11.0330    0.8862 C   0  0  0  0  0  0  0  0  0  0  0  0
   -0.0687    0.0687    0.8862 C   0  0  0  0  0  0  0  0  0  0  0  0
   -0.0687   21.9973    0.8862 C   0  0  0  0  0  0  0  0  0  0  0  0
   21.8599    0.0687    0.8862 C   0  0  0  0  0  0  0  0  0  0  0  0
   21.8599   21.9973    0.8862 C   0  0  0  0  0  0  0  0  0  0  0  0
   -0.0687   11.0330    0.8862 C   0  0  0  0  0  0  0  0  0  0  0  0
   21.8599   11.0330    0.8862 C   0  0  0  0  0  0  0  0  0  0  0  0
   10.8986    0.0657    2.2466 C   0  0  0  0  0  0  0  0  0  0  0  0
   10.8986   21.9942    2.2466 C   0  0  0  0  0  0  0  0  0  0  0  0
   10.8986   11.0300    2.2466 C   0  0  0  0  0  0  0  0  0  0  0  0
   -0.0656    0.0657    2.2466 C   0  0  0  0  0  0  0  0  0  0  0  0
   -0.0656   21.9942    2.2466 C   0  0  0  0  0  0  0  0  0  0  0  0
   21.8629    0.0657    2.2466 C   0  0  0  0  0  0  0  0  0  0  0  0
   21.8629   21.9942    2.2466 C   0  0  0  0  0  0  0  0  0  0  0  0
   -0.0656   11.0300    2.2466 C   0  0  0  0  0  0  0  0  0  0  0  0
   21.8629   11.0300    2.2466 C   0  0  0  0  0  0  0  0  0  0  0  0
   10.7957    0.1686   11.2501 N   0  0  0  0  0  0  0  0  0  0  0  0
   10.7957   22.0972   11.2501 N   0  0  0  0  0  0  0  0  0  0  0  0
   10.7957   11.1329   11.2501 N   0  0  0  0  0  0  0  0  0  0  0  0
   -0.1686    0.1686   11.2501 N   0  0  0  0  0  0  0  0  0  0  0  0
   -0.1686   22.0972   11.2501 N   0  0  0  0  0  0  0  0  0  0  0  0
   21.7600    0.1686   11.2501 N   0  0  0  0  0  0  0  0  0  0  0  0
   21.7600   22.0972   11.2501 N   0  0  0  0  0  0  0  0  0  0  0  0
   -0.1686   11.1329   11.2501 N   0  0  0  0  0  0  0  0  0  0  0  0
   21.7600   11.1329   11.2501 N   0  0  0  0  0  0  0  0  0  0  0  0
   10.8909    0.0734    3.3979 N   0  0  0  0  0  0  0  0  0  0  0  0
   10.8909   22.0019    3.3979 N   0  0  0  0  0  0  0  0  0  0  0  0
   10.8909   11.0377    3.3979 N   0  0  0  0  0  0  0  0  0  0  0  0
   -0.0733    0.0734    3.3979 N   0  0  0  0  0  0  0  0  0  0  0  0
   -0.0733   22.0019    3.3979 N   0  0  0  0  0  0  0  0  0  0  0  0
   21.8552    0.0734    3.3979 N   0  0  0  0  0  0  0  0  0  0  0  0
   21.8552   22.0019    3.3979 N   0  0  0  0  0  0  0  0  0  0  0  0
   -0.0733   11.0377    3.3979 N   0  0  0  0  0  0  0  0  0  0  0  0
   21.8552   11.0377    3.3979 N   0  0  0  0  0  0  0  0  0  0  0  0
    8.9014    0.0940    7.9257 O   0  0  0  0  0  0  0  0  0  0  0  0
    8.9014   22.0226    7.9257 O   0  0  0  0  0  0  0  0  0  0  0  0
    8.9014   11.0583    7.9257 O   0  0  0  0  0  0  0  0  0  0  0  0
   19.8657    0.0940    7.9257 O   0  0  0  0  0  0  0  0  0  0  0  0
   19.8657   22.0226    7.9257 O   0  0  0  0  0  0  0  0  0  0  0  0
   19.8657   11.0583    7.9257 O   0  0  0  0  0  0  0  0  0  0  0  0
    8.8745    0.0942    5.7057 O   0  0  0  0  0  0  0  0  0  0  0  0
    8.8745   22.0228    5.7057 O   0  0  0  0  0  0  0  0  0  0  0  0
    8.8745   11.0585    5.7057 O   0  0  0  0  0  0  0  0  0  0  0  0
   19.8387    0.0942    5.7057 O   0  0  0  0  0  0  0  0  0  0  0  0
   19.8387   22.0228    5.7057 O   0  0  0  0  0  0  0  0  0  0  0  0
   19.8387   11.0585    5.7057 O   0  0  0  0  0  0  0  0  0  0  0  0
    1.8716    0.0877    7.9572 O   0  0  0  0  0  0  0  0  0  0  0  0
    1.8716   22.0163    7.9572 O   0  0  0  0  0  0  0  0  0  0  0  0
    1.8716   11.0520    7.9572 O   0  0  0  0  0  0  0  0  0  0  0  0
   12.8358    0.0877    7.9572 O   0  0  0  0  0  0  0  0  0  0  0  0
   12.8358   22.0163    7.9572 O   0  0  0  0  0  0  0  0  0  0  0  0
   12.8358   11.0520    7.9572 O   0  0  0  0  0  0  0  0  0  0  0  0
    1.8829    0.1173    5.7357 O   0  0  0  0  0  0  0  0  0  0  0  0
    1.8829   22.0458    5.7357 O   0  0  0  0  0  0  0  0  0  0  0  0
    1.8829   11.0816    5.7357 O   0  0  0  0  0  0  0  0  0  0  0  0
   12.8471    0.1173    5.7357 O   0  0  0  0  0  0  0  0  0  0  0  0
   12.8471   22.0458    5.7357 O   0  0  0  0  0  0  0  0  0  0  0  0
   12.8471   11.0816    5.7357 O   0  0  0  0  0  0  0  0  0  0  0  0
    6.6837    0.1908    9.2602 O   0  0  0  0  0  0  0  0  0  0  0  0
    6.6837   22.1194    9.2602 O   0  0  0  0  0  0  0  0  0  0  0  0
    6.6837   11.1551    9.2602 O   0  0  0  0  0  0  0  0  0  0  0  0
   17.6480    0.1908    9.2602 O   0  0  0  0  0  0  0  0  0  0  0  0
   17.6480   22.1194    9.2602 O   0  0  0  0  0  0  0  0  0  0  0  0
   17.6480   11.1551    9.2602 O   0  0  0  0  0  0  0  0  0  0  0  0
    4.0966    0.1042    9.2638 O   0  0  0  0  0  0  0  0  0  0  0  0
    4.0966   22.0328    9.2638 O   0  0  0  0  0  0  0  0  0  0  0  0
    4.0966   11.0685    9.2638 O   0  0  0  0  0  0  0  0  0  0  0  0
   15.0609    0.1042    9.2638 O   0  0  0  0  0  0  0  0  0  0  0  0
   15.0609   22.0328    9.2638 O   0  0  0  0  0  0  0  0  0  0  0  0
   15.0609   11.0685    9.2638 O   0  0  0  0  0  0  0  0  0  0  0  0
   10.8765    9.0927    7.9572 O   0  0  0  0  0  0  0  0  0  0  0  0
   10.8765   20.0570    7.9572 O   0  0  0  0  0  0  0  0  0  0  0  0
   -0.0877    9.0927    7.9572 O   0  0  0  0  0  0  0  0  0  0  0  0
   21.8408    9.0927    7.9572 O   0  0  0  0  0  0  0  0  0  0  0  0
   -0.0877   20.0570    7.9572 O   0  0  0  0  0  0  0  0  0  0  0  0
   21.8408   20.0570    7.9572 O   0  0  0  0  0  0  0  0  0  0  0  0
   10.8470    9.0815    5.7357 O   0  0  0  0  0  0  0  0  0  0  0  0
   10.8470   20.0458    5.7357 O   0  0  0  0  0  0  0  0  0  0  0  0
   -0.1173    9.0815    5.7357 O   0  0  0  0  0  0  0  0  0  0  0  0
   21.8113    9.0815    5.7357 O   0  0  0  0  0  0  0  0  0  0  0  0
   -0.1173   20.0458    5.7357 O   0  0  0  0  0  0  0  0  0  0  0  0
   21.8113   20.0458    5.7357 O   0  0  0  0  0  0  0  0  0  0  0  0
   10.8702    2.0628    7.9257 O   0  0  0  0  0  0  0  0  0  0  0  0
   10.8702   13.0271    7.9257 O   0  0  0  0  0  0  0  0  0  0  0  0
   -0.0940    2.0628    7.9257 O   0  0  0  0  0  0  0  0  0  0  0  0
   21.8345    2.0628    7.9257 O   0  0  0  0  0  0  0  0  0  0  0  0
   -0.0940   13.0271    7.9257 O   0  0  0  0  0  0  0  0  0  0  0  0
   21.8345   13.0271    7.9257 O   0  0  0  0  0  0  0  0  0  0  0  0
   10.8700    2.0898    5.7057 O   0  0  0  0  0  0  0  0  0  0  0  0
   10.8700   13.0541    5.7057 O   0  0  0  0  0  0  0  0  0  0  0  0
   -0.0942    2.0898    5.7057 O   0  0  0  0  0  0  0  0  0  0  0  0
   21.8343    2.0898    5.7057 O   0  0  0  0  0  0  0  0  0  0  0  0
   -0.0942   13.0541    5.7057 O   0  0  0  0  0  0  0  0  0  0  0  0
   21.8343   13.0541    5.7057 O   0  0  0  0  0  0  0  0  0  0  0  0
   10.8600    6.8676    9.2637 O   0  0  0  0  0  0  0  0  0  0  0  0
   10.8600   17.8319    9.2637 O   0  0  0  0  0  0  0  0  0  0  0  0
   -0.1043    6.8676    9.2637 O   0  0  0  0  0  0  0  0  0  0  0  0
   21.8243    6.8676    9.2637 O   0  0  0  0  0  0  0  0  0  0  0  0
   -0.1043   17.8319    9.2637 O   0  0  0  0  0  0  0  0  0  0  0  0
   21.8243   17.8319    9.2637 O   0  0  0  0  0  0  0  0  0  0  0  0
   10.7734    4.2806    9.2601 O   0  0  0  0  0  0  0  0  0  0  0  0
   10.7734   15.2449    9.2601 O   0  0  0  0  0  0  0  0  0  0  0  0
   -0.1909    4.2806    9.2601 O   0  0  0  0  0  0  0  0  0  0  0  0
   21.7377    4.2806    9.2601 O   0  0  0  0  0  0  0  0  0  0  0  0
   -0.1909   15.2449    9.2601 O   0  0  0  0  0  0  0  0  0  0  0  0
   21.7377   15.2449    9.2601 O   0  0  0  0  0  0  0  0  0  0  0  0
  1217  1  0  0  0  0
  1232  1  0  0  0  0
  1247  1  0  0  0  0
  1280  1  0  0  0  0
  2218  1  0  0  0  0
  2233  1  0  0  0  0
  2248  1  0  0  0  0
  2269  1  0  0  0  0
  3219  1  0  0  0  0
  3234  1  0  0  0  0
  3249  1  0  0  0  0
  3268  1  0  0  0  0
  3281  1  0  0  0  0
  4220  1  0  0  0  0
  4244  1  0  0  0  0
  4282  1  0  0  0  0
  5221  1  0  0  0  0
  5245  1  0  0  0  0
  5272  1  0  0  0  0
  6222  1  0  0  0  0
  6235  1  0  0  0  0
  6283  1  0  0  0  0
  7223  1  0  0  0  0
  7236  1  0  0  0  0
  7273  1  0  0  0  0
  8224  1  0  0  0  0
  8246  1  0  0  0  0
  8270  1  0  0  0  0
  8284  1  0  0  0  0
  9225  1  0  0  0  0
  9237  1  0  0  0  0
  9271  1  0  0  0  0
  9285  1  0  0  0  0
 10226  1  0  0  0  0
 10241  1  0  0  0  0
 10274  1  0  0  0  0
 11227  1  0  0  0  0
 11242  1  0  0  0  0
 11263  1  0  0  0  0
 12228  1  0  0  0  0
 12243  1  0  0  0  0
 12262  1  0  0  0  0
 12275  1  0  0  0  0
 13238  1  0  0  0  0
 13276  1  0  0  0  0
 14239  1  0  0  0  0
 14266  1  0  0  0  0
 15229  1  0  0  0  0
 15277  1  0  0  0  0
 16230  1  0  0  0  0
 16267  1  0  0  0  0
 17240  1  0  0  0  0
 17264  1  0  0  0  0
 17278  1  0  0  0  0
 18231  1  0  0  0  0
 18265  1  0  0  0  0
 18279  1  0  0  0  0
 19250  1  0  0  0  0
 20251  1  0  0  0  0
 21252  1  0  0  0  0
 22253  1  0  0  0  0
 23254  1  0  0  0  0
 24255  1  0  0  0  0
 25256  1  0  0  0  0
 26257  1  0  0  0  0
 27258  1  0  0  0  0
 28259  1  0  0  0  0
 29260  1  0  0  0  0
 30261  1  0  0  0  0
 31 91  1  0  0  0  0
 32 92  1  0  0  0  0
 33 93  1  0  0  0  0
 34 94  1  0  0  0  0
 35 95  1  0  0  0  0
 36 96  1  0  0  0  0
 37 97  1  0  0  0  0
 38 98  1  0  0  0  0
 39 99  1  0  0  0  0
 40100  1  0  0  0  0
 41101  1  0  0  0  0
 42102  1  0  0  0  0
 43286  1  0  0  0  0
 44287  1  0  0  0  0
 45288  1  0  0  0  0
 46289  1  0  0  0  0
 47290  1  0  0  0  0
 48291  1  0  0  0  0
 49292  1  0  0  0  0
 50293  1  0  0  0  0
 51294  1  0  0  0  0
 52295  1  0  0  0  0
 53296  1  0  0  0  0
 54297  1  0  0  0  0
 55139  1  0  0  0  0
 56140  1  0  0  0  0
 57141  1  0  0  0  0
 58142  1  0  0  0  0
 59143  1  0  0  0  0
 60144  1  0  0  0  0
 61145  1  0  0  0  0
 62146  1  0  0  0  0
 63147  1  0  0  0  0
 64148  1  0  0  0  0
 65149  1  0  0  0  0
 66150  1  0  0  0  0
 67 73  1  0  0  0  0
 67 97  1  0  0  0  0
 67103  1  0  0  0  0
 68 74  1  0  0  0  0
 68 98  1  0  0  0  0
 68104  1  0  0  0  0
 69 75  1  0  0  0  0
 69 99  1  0  0  0  0
 69105  1  0  0  0  0
 70 76  1  0  0  0  0
 70100  1  0  0  0  0
 70106  1  0  0  0  0
 71 77  1  0  0  0  0
 71101  1  0  0  0  0
 71107  1  0  0  0  0
 72 78  1  0  0  0  0
 72102  1  0  0  0  0
 72108  1  0  0  0  0
 73 79  1  0  0  0  0
 73250  1  0  0  0  0
 74 80  1  0  0  0  0
 74251  1  0  0  0  0
 75 81  1  0  0  0  0
 75252  1  0  0  0  0
 76 82  1  0  0  0  0
 76253  1  0  0  0  0
 77 83  1  0  0  0  0
 77254  1  0  0  0  0
 78 84  1  0  0  0  0
 78255  1  0  0  0  0
 79 85  1  0  0  0  0
 79256  1  0  0  0  0
 80 86  1  0  0  0  0
 80257  1  0  0  0  0
 81 87  1  0  0  0  0
 81258  1  0  0  0  0
 82 88  1  0  0  0  0
 82259  1  0  0  0  0
 83 89  1  0  0  0  0
 83260  1  0  0  0  0
 84 90  1  0  0  0  0
 84261  1  0  0  0  0
 85 91  1  0  0  0  0
 85109  1  0  0  0  0
 86 92  1  0  0  0  0
 86110  1  0  0  0  0
 87 93  1  0  0  0  0
 87111  1  0  0  0  0
 88 94  1  0  0  0  0
 88112  1  0  0  0  0
 89 95  1  0  0  0  0
 89113  1  0  0  0  0
 90 96  1  0  0  0  0
 90114  1  0  0  0  0
 91 97  1  0  0  0  0
 92 98  1  0  0  0  0
 93 99  1  0  0  0  0
 94100  1  0  0  0  0
 95101  1  0  0  0  0
 96102  1  0  0  0  0
103226  1  0  0  0  0
103232  1  0  0  0  0
104227  1  0  0  0  0
104233  1  0  0  0  0
105228  1  0  0  0  0
105234  1  0  0  0  0
106229  1  0  0  0  0
106235  1  0  0  0  0
107230  1  0  0  0  0
107236  1  0  0  0  0
108231  1  0  0  0  0
108237  1  0  0  0  0
109238  1  0  0  0  0
109244  1  0  0  0  0
110239  1  0  0  0  0
110245  1  0  0  0  0
111240  1  0  0  0  0
111246  1  0  0  0  0
112241  1  0  0  0  0
112247  1  0  0  0  0
113242  1  0  0  0  0
113248  1  0  0  0  0
114243  1  0  0  0  0
114249  1  0  0  0  0
115121  1  0  0  0  0
115145  1  0  0  0  0
115151  1  0  0  0  0
116122  1  0  0  0  0
116146  1  0  0  0  0
116152  1  0  0  0  0
117123  1  0  0  0  0
117147  1  0  0  0  0
117153  1  0  0  0  0
118124  1  0  0  0  0
118148  1  0  0  0  0
118154  1  0  0  0  0
119125  1  0  0  0  0
119149  1  0  0  0  0
119155  1  0  0  0  0
120126  1  0  0  0  0
120150  1  0  0  0  0
120156  1  0  0  0  0
121127  1  0  0  0  0
121286  1  0  0  0  0
122128  1  0  0  0  0
122287  1  0  0  0  0
123129  1  0  0  0  0
123288  1  0  0  0  0
124130  1  0  0  0  0
124289  1  0  0  0  0
125131  1  0  0  0  0
125290  1  0  0  0  0
126132  1  0  0  0  0
126291  1  0  0  0  0
127133  1  0  0  0  0
127292  1  0  0  0  0
128134  1  0  0  0  0
128293  1  0  0  0  0
129135  1  0  0  0  0
129294  1  0  0  0  0
130136  1  0  0  0  0
130295  1  0  0  0  0
131137  1  0  0  0  0
131296  1  0  0  0  0
132138  1  0  0  0  0
132297  1  0  0  0  0
133139  1  0  0  0  0
133157  1  0  0  0  0
134140  1  0  0  0  0
134158  1  0  0  0  0
135141  1  0  0  0  0
135159  1  0  0  0  0
136142  1  0  0  0  0
136160  1  0  0  0  0
137143  1  0  0  0  0
137161  1  0  0  0  0
138144  1  0  0  0  0
138162  1  0  0  0  0
139145  1  0  0  0  0
140146  1  0  0  0  0
141147  1  0  0  0  0
142148  1  0  0  0  0
143149  1  0  0  0  0
144150  1  0  0  0  0
151262  1  0  0  0  0
151268  1  0  0  0  0
152263  1  0  0  0  0
152269  1  0  0  0  0
153264  1  0  0  0  0
153270  1  0  0  0  0
154265  1  0  0  0  0
154271  1  0  0  0  0
155266  1  0  0  0  0
155272  1  0  0  0  0
156267  1  0  0  0  0
156273  1  0  0  0  0
157274  1  0  0  0  0
157280  1  0  0  0  0
158275  1  0  0  0  0
158281  1  0  0  0  0
159276  1  0  0  0  0
159282  1  0  0  0  0
160277  1  0  0  0  0
160283  1  0  0  0  0
161278  1  0  0  0  0
161284  1  0  0  0  0
162279  1  0  0  0  0
162285  1  0  0  0  0
163173  1  0  0  0  0
163208  1  0  0  0  0
164175  1  0  0  0  0
164209  1  0  0  0  0
165177  1  0  0  0  0
165210  1  0  0  0  0
166179  1  0  0  0  0
166211  1  0  0  0  0
167181  1  0  0  0  0
167212  1  0  0  0  0
168183  1  0  0  0  0
168213  1  0  0  0  0
169185  1  0  0  0  0
169214  1  0  0  0  0
170187  1  0  0  0  0
170215  1  0  0  0  0
171189  1  0  0  0  0
171216  1  0  0  0  0
172190  1  0  0  0  0
174191  1  0  0  0  0
176192  1  0  0  0  0
178193  1  0  0  0  0
180194  1  0  0  0  0
182195  1  0  0  0  0
184196  1  0  0  0  0
186197  1  0  0  0  0
188198  1  0  0  0  0
190199  1  0  0  0  0
191200  1  0  0  0  0
192201  1  0  0  0  0
193202  1  0  0  0  0
194203  1  0  0  0  0
195204  1  0  0  0  0
196205  1  0  0  0  0
197206  1  0  0  0  0
198207  1  0  0  0  0
199217  1  0  0  0  0
200218  1  0  0  0  0
201219  1  0  0  0  0
202220  1  0  0  0  0
203221  1  0  0  0  0
204222  1  0  0  0  0
205223  1  0  0  0  0
206224  1  0  0  0  0
207225  1  0  0  0  0
M  END
$$$$
