@<TRIPOS>MOLECULE
ndc_zn4o_pcu_ip2_off380
449 516 0 0 0
SMALL
NO_CHARGES

@<TRIPOS>ATOM
     1 Zn1         8.489866     6.254363     6.357762 Zn   1 RES 0.0000
     2 Zn2         6.228393     8.237441     6.440044 Zn   1 RES 0.0000
     3 Zn3         6.383393     6.037897     8.378689 Zn   1 RES 0.0000
     4 Zn4         8.314502     8.283313     8.534351 Zn   1 RES 0.0000
     5 Zn5        -0.744409    -2.576407    -2.949770 Zn   1 RES 0.0000
     6 Zn6        -0.744409    -2.576407    11.766230 Zn   1 RES 0.0000
     7 Zn7        -0.744409    12.139593    -2.949770 Zn   1 RES 0.0000
     8 Zn8        -0.744409    12.139593    11.766230 Zn   1 RES 0.0000
     9 Zn9        13.971591    -2.576407    -2.949770 Zn   1 RES 0.0000
    10 Zn10       13.971591    -2.576407    11.766230 Zn   1 RES 0.0000
    11 Zn11       13.971591    12.139593    -2.949770 Zn   1 RES 0.0000
    12 Zn12       13.971591    12.139593    11.766230 Zn   1 RES 0.0000
    13 Zn13       -2.961653    -0.559232    -2.811060 Zn   1 RES 0.0000
    14 Zn14       -2.961653    -0.559232    11.904940 Zn   1 RES 0.0000
    15 Zn15       -2.961653    14.156768    -2.811060 Zn   1 RES 0.0000
    16 Zn16       -2.961653    14.156768    11.904940 Zn   1 RES 0.0000
    17 Zn17       11.754347    -0.559232    -2.811060 Zn   1 RES 0.0000
    18 Zn18       11.754347    -0.559232    11.904940 Zn   1 RES 0.0000
    19 Zn19       11.754347    14.156768    -2.811060 Zn   1 RES 0.0000
    20 Zn20       11.754347    14.156768    11.904940 Zn   1 RES 0.0000
    21 Zn21       -2.840639    -2.786085    -0.900460 Zn   1 RES 0.0000
    22 Zn22       -2.840639    -2.786085    13.815540 Zn   1 RES 0.0000
    23 Zn23       -2.840639    11.929915    -0.900460 Zn   1 RES 0.0000
    24 Zn24       -2.840639    11.929915    13.815540 Zn   1 RES 0.0000
    25 Zn25       11.875361    -2.786085    -0.900460 Zn   1 RES 0.0000
    26 Zn26       11.875361    -2.786085    13.815540 Zn   1 RES 0.0000
    27 Zn27       11.875361    11.929915    -0.900460 Zn   1 RES 0.0000
    28 Zn28       11.875361    11.929915    13.815540 Zn   1 RES 0.0000
    29 Zn29       -0.873458    -0.564588    -0.748722 Zn   1 RES 0.0000
    30 Zn30       -0.873458    -0.564588    13.967278 Zn   1 RES 0.0000
    31 Zn31       -0.873458    14.151412    -0.748722 Zn   1 RES 0.0000
    32 Zn32       -0.873458    14.151412    13.967278 Zn   1 RES 0.0000
    33 Zn33       13.842542    -0.564588    -0.748722 Zn   1 RES 0.0000
    34 Zn34       13.842542    -0.564588    13.967278 Zn   1 RES 0.0000
    35 Zn35       13.842542    14.151412    -0.748722 Zn   1 RES 0.0000
    36 Zn36       13.842542    14.151412    13.967278 Zn   1 RES 0.0000
    37 H37       -2.601018     9.533165     7.987612 H    1 RES 0.0000
    38 H38       12.114982     9.533165     7.987612 H    1 RES 0.0000
    39 H39       -0.097277     9.858614     7.700812 H    1 RES 0.0000
    40 H40       14.618723     9.858614     7.700812 H    1 RES 0.0000
    41 H41        2.096076     8.893489     7.362132 H    1 RES 0.0000
    42 H42       16.812076     8.893489     7.362132 H    1 RES 0.0000
    43 H43        2.570754     4.658137     7.308128 H    1 RES 0.0000
    44 H44       17.286754     4.658137     7.308128 H    1 RES 0.0000
    45 H45        0.092225     4.368082     7.171066 H    1 RES 0.0000
    46 H46       14.808225     4.368082     7.171066 H    1 RES 0.0000
    47 H47       -2.183122     5.385150     7.222449 H    1 RES 0.0000
    48 H48       12.532878     5.385150     7.222449 H    1 RES 0.0000
    49 H49        4.949414    -2.691730     7.361788 H    1 RES 0.0000
    50 H50        4.949414    12.024270     7.361788 H    1 RES 0.0000
    51 H51        4.682181    -0.217786     7.405419 H    1 RES 0.0000
    52 H52        4.682181    14.498214     7.405419 H    1 RES 0.0000
    53 H53        5.707349     2.022373     7.452833 H    1 RES 0.0000
    54 H54        5.707349    16.738373     7.452833 H    1 RES 0.0000
    55 H55        9.928976     2.415677     7.195191 H    1 RES 0.0000
    56 H56        9.928976    17.131677     7.195191 H    1 RES 0.0000
    57 H57       10.211273    -0.043655     7.510829 H    1 RES 0.0000
    58 H58       10.211273    14.672345     7.510829 H    1 RES 0.0000
    59 H59        9.171786    -2.285385     7.777205 H    1 RES 0.0000
    60 H60        9.171786    12.430615     7.777205 H    1 RES 0.0000
    61 H61        7.340226     4.638133    -2.513172 H    1 RES 0.0000
    62 H62        7.340226     4.638133    12.202828 H    1 RES 0.0000
    63 H63        7.441651     4.354045    -0.035371 H    1 RES 0.0000
    64 H64        7.441651     4.354045    14.680629 H    1 RES 0.0000
    65 H65        7.543547     5.384049     2.240576 H    1 RES 0.0000
    66 H66        7.543547     5.384049    16.956576 H    1 RES 0.0000
    67 H67        7.313554     9.625436     2.606033 H    1 RES 0.0000
    68 H68        7.313554     9.625436    17.322033 H    1 RES 0.0000
    69 H69        7.587217     9.876136     0.143139 H    1 RES 0.0000
    70 H70        7.587217     9.876136    14.859139 H    1 RES 0.0000
    71 H71        7.723831     8.844916    -2.081597 H    1 RES 0.0000
    72 H72        7.723831     8.844916    12.634403 H    1 RES 0.0000
    73 H73        2.856811     0.858940    -1.599433 H    1 RES 0.0000
    74 H74        2.856811     0.858940    13.116567 H    1 RES 0.0000
    75 H75        2.856811    15.574940    -1.599433 H    1 RES 0.0000
    76 H76        2.856811    15.574940    13.116567 H    1 RES 0.0000
    77 H77       17.572811     0.858940    -1.599433 H    1 RES 0.0000
    78 H78       17.572811     0.858940    13.116567 H    1 RES 0.0000
    79 H79       17.572811    15.574940    -1.599433 H    1 RES 0.0000
    80 H80       17.572811    15.574940    13.116567 H    1 RES 0.0000
    81 H81        5.320740     1.233725    -1.809546 H    1 RES 0.0000
    82 H82        5.320740     1.233725    12.906454 H    1 RES 0.0000
    83 H83        5.320740    15.949725    -1.809546 H    1 RES 0.0000
    84 H84        5.320740    15.949725    12.906454 H    1 RES 0.0000
    85 H85        7.602201     0.285228    -1.869048 H    1 RES 0.0000
    86 H86        7.602201     0.285228    12.846952 H    1 RES 0.0000
    87 H87        7.602201    15.001228    -1.869048 H    1 RES 0.0000
    88 H88        7.602201    15.001228    12.846952 H    1 RES 0.0000
    89 H89        8.165768    10.802678    -2.029577 H    1 RES 0.0000
    90 H90        8.165768    10.802678    12.686423 H    1 RES 0.0000
    91 H91        5.668789    10.452148    -2.235438 H    1 RES 0.0000
    92 H92        5.668789    10.452148    12.480562 H    1 RES 0.0000
    93 H93        3.408328    11.393627    -2.149365 H    1 RES 0.0000
    94 H94        3.408328    11.393627    12.566635 H    1 RES 0.0000
    95 H95       10.515570     3.138176    -1.865065 H    1 RES 0.0000
    96 H96       10.515570     3.138176    12.850935 H    1 RES 0.0000
    97 H97       10.515570    17.854176    -1.865065 H    1 RES 0.0000
    98 H98       10.515570    17.854176    12.850935 H    1 RES 0.0000
    99 H99       10.193106     5.612431    -1.798049 H    1 RES 0.0000
   100 H100      10.193106     5.612431    12.917951 H    1 RES 0.0000
   101 H101      11.179507     7.866272    -1.801599 H    1 RES 0.0000
   102 H102      11.179507     7.866272    12.914401 H    1 RES 0.0000
   103 H103       0.688715     8.326089    -2.055019 H    1 RES 0.0000
   104 H104       0.688715     8.326089    12.660981 H    1 RES 0.0000
   105 H105      15.404715     8.326089    -2.055019 H    1 RES 0.0000
   106 H106      15.404715     8.326089    12.660981 H    1 RES 0.0000
   107 H107       1.004875     5.879082    -1.731764 H    1 RES 0.0000
   108 H108       1.004875     5.879082    12.984236 H    1 RES 0.0000
   109 H109      15.720875     5.879082    -1.731764 H    1 RES 0.0000
   110 H110      15.720875     5.879082    12.984236 H    1 RES 0.0000
   111 H111       0.005213     3.617801    -1.456184 H    1 RES 0.0000
   112 H112       0.005213     3.617801    13.259816 H    1 RES 0.0000
   113 H113      14.721213     3.617801    -1.456184 H    1 RES 0.0000
   114 H114      14.721213     3.617801    13.259816 H    1 RES 0.0000
   115 H115      -1.994537    10.675487     2.971908 H    1 RES 0.0000
   116 H116      -1.994537    10.675487    17.687908 H    1 RES 0.0000
   117 H117      12.721463    10.675487     2.971908 H    1 RES 0.0000
   118 H118      12.721463    10.675487    17.687908 H    1 RES 0.0000
   119 H119      -1.855253    10.426036     5.449314 H    1 RES 0.0000
   120 H120      12.860747    10.426036     5.449314 H    1 RES 0.0000
   121 H121      -1.702471    11.452500     7.664059 H    1 RES 0.0000
   122 H122      13.013529    11.452500     7.664059 H    1 RES 0.0000
   123 H123      -1.903373     0.959736     8.086656 H    1 RES 0.0000
   124 H124      -1.903373    15.675736     8.086656 H    1 RES 0.0000
   125 H125      12.812627     0.959736     8.086656 H    1 RES 0.0000
   126 H126      12.812627    15.675736     8.086656 H    1 RES 0.0000
   127 H127      -1.768347     1.230483     5.611340 H    1 RES 0.0000
   128 H128      -1.768347    15.946483     5.611340 H    1 RES 0.0000
   129 H129      12.947653     1.230483     5.611340 H    1 RES 0.0000
   130 H130      12.947653    15.946483     5.611340 H    1 RES 0.0000
   131 H131      -1.699525     0.195694     3.337539 H    1 RES 0.0000
   132 H132      -1.699525    14.911694     3.337539 H    1 RES 0.0000
   133 H133      13.016475     0.195694     3.337539 H    1 RES 0.0000
   134 H134      13.016475    14.911694     3.337539 H    1 RES 0.0000
   135 C135      10.765470     7.326990     7.595030 C    1 RES 0.0000
   136 C136      -2.479457     7.452046     7.582913 C    1 RES 0.0000
   137 C137      12.236543     7.452046     7.582913 C    1 RES 0.0000
   138 C138      -1.917788     8.729406     7.759742 C    1 RES 0.0000
   139 C139      12.798212     8.729406     7.759742 C    1 RES 0.0000
   140 C140      -0.571324     8.892639     7.620117 C    1 RES 0.0000
   141 C141      14.144676     8.892639     7.620117 C    1 RES 0.0000
   142 C142       0.258057     7.770572     7.412406 C    1 RES 0.0000
   143 C143      14.974057     7.770572     7.412406 C    1 RES 0.0000
   144 C144       1.654798     7.908998     7.352670 C    1 RES 0.0000
   145 C145      16.370798     7.908998     7.352670 C    1 RES 0.0000
   146 C146       2.453520     6.794752     7.349073 C    1 RES 0.0000
   147 C147      17.169520     6.794752     7.349073 C    1 RES 0.0000
   148 C148       3.925114     6.969717     7.436434 C    1 RES 0.0000
   149 C149       1.896629     5.500284     7.307101 C    1 RES 0.0000
   150 C150      16.612629     5.500284     7.307101 C    1 RES 0.0000
   151 C151       0.541902     5.346948     7.244489 C    1 RES 0.0000
   152 C152      15.257902     5.346948     7.244489 C    1 RES 0.0000
   153 C153      -0.308980     6.470357     7.323290 C    1 RES 0.0000
   154 C154      14.407020     6.470357     7.323290 C    1 RES 0.0000
   155 C155      -1.707869     6.345486     7.348954 C    1 RES 0.0000
   156 C156      13.008131     6.345486     7.348954 C    1 RES 0.0000
   157 C157       7.208306    10.636537     7.550582 C    1 RES 0.0000
   158 C158       7.080378    -2.605363     7.588995 C    1 RES 0.0000
   159 C159       7.080378    12.110637     7.588995 C    1 RES 0.0000
   160 C160       5.797188    -2.034522     7.463264 C    1 RES 0.0000
   161 C161       5.797188    12.681478     7.463264 C    1 RES 0.0000
   162 C162       5.656004    -0.679542     7.476655 C    1 RES 0.0000
   163 C163       5.656004    14.036458     7.476655 C    1 RES 0.0000
   164 C164       6.794279     0.153935     7.523494 C    1 RES 0.0000
   165 C165       6.794279    14.869935     7.523494 C    1 RES 0.0000
   166 C166       6.677460     1.550698     7.457148 C    1 RES 0.0000
   167 C167       6.677460    16.266698     7.457148 C    1 RES 0.0000
   168 C168       7.800257     2.329232     7.348488 C    1 RES 0.0000
   169 C169       7.800257    17.045232     7.348488 C    1 RES 0.0000
   170 C170       7.638511     3.791684     7.225039 C    1 RES 0.0000
   171 C171       9.086732     1.756727     7.328460 C    1 RES 0.0000
   172 C172       9.086732    16.472727     7.328460 C    1 RES 0.0000
   173 C173       9.231782     0.409906     7.489002 C    1 RES 0.0000
   174 C174       9.231782    15.125906     7.489002 C    1 RES 0.0000
   175 C175       8.094152    -0.422559     7.586903 C    1 RES 0.0000
   176 C176       8.094152    14.293441     7.586903 C    1 RES 0.0000
   177 C177       8.202626    -1.821214     7.680704 C    1 RES 0.0000
   178 C178       8.202626    12.894786     7.680704 C    1 RES 0.0000
   179 C179       7.426280     6.921996    10.826792 C    1 RES 0.0000
   180 C180       7.519065     6.764815    -2.419422 C    1 RES 0.0000
   181 C181       7.519065     6.764815    12.296578 C    1 RES 0.0000
   182 C182       7.428696     5.479933    -1.846472 C    1 RES 0.0000
   183 C183       7.428696     5.479933    12.869528 C    1 RES 0.0000
   184 C184       7.475626     5.332117    -0.490349 C    1 RES 0.0000
   185 C185       7.475626     5.332117    14.225651 C    1 RES 0.0000
   186 C186       7.537104     6.460157     0.359570 C    1 RES 0.0000
   187 C187       7.537104     6.460157    15.075570 C    1 RES 0.0000
   188 C188       7.519683     6.352186     1.764191 C    1 RES 0.0000
   189 C189       7.519683     6.352186    16.480191 C    1 RES 0.0000
   190 C190       7.436378     7.483309     2.537273 C    1 RES 0.0000
   191 C191       7.436378     7.483309    17.253273 C    1 RES 0.0000
   192 C192       7.374184     7.372055     4.017428 C    1 RES 0.0000
   193 C193       7.413321     8.767664     1.960160 C    1 RES 0.0000
   194 C194       7.413321     8.767664    16.676160 C    1 RES 0.0000
   195 C195       7.542990     8.902723     0.608831 C    1 RES 0.0000
   196 C196       7.542990     8.902723    15.324831 C    1 RES 0.0000
   197 C197       7.591483     7.759072    -0.219554 C    1 RES 0.0000
   198 C198       7.591483     7.759072    14.496446 C    1 RES 0.0000
   199 C199       7.635050     7.875199    -1.620501 C    1 RES 0.0000
   200 C200       7.635050     7.875199    13.095499 C    1 RES 0.0000
   201 C201       1.560102    -1.447975    -1.801934 C    1 RES 0.0000
   202 C202       1.560102    -1.447975    12.914066 C    1 RES 0.0000
   203 C203       1.560102    13.268025    -1.801934 C    1 RES 0.0000
   204 C204       1.560102    13.268025    12.914066 C    1 RES 0.0000
   205 C205      16.276102    -1.447975    -1.801934 C    1 RES 0.0000
   206 C206      16.276102    -1.447975    12.914066 C    1 RES 0.0000
   207 C207      16.276102    13.268025    -1.801934 C    1 RES 0.0000
   208 C208      16.276102    13.268025    12.914066 C    1 RES 0.0000
   209 C209       3.027859    -1.254171    -1.863166 C    1 RES 0.0000
   210 C210       3.027859    -1.254171    12.852834 C    1 RES 0.0000
   211 C211       3.027859    13.461829    -1.863166 C    1 RES 0.0000
   212 C212       3.027859    13.461829    12.852834 C    1 RES 0.0000
   213 C213      17.743859    -1.254171    -1.863166 C    1 RES 0.0000
   214 C214      17.743859    -1.254171    12.852834 C    1 RES 0.0000
   215 C215      17.743859    13.461829    -1.863166 C    1 RES 0.0000
   216 C216      17.743859    13.461829    12.852834 C    1 RES 0.0000
   217 C217       3.551423     0.047528    -1.748077 C    1 RES 0.0000
   218 C218       3.551423     0.047528    12.967923 C    1 RES 0.0000
   219 C219       3.551423    14.763528    -1.748077 C    1 RES 0.0000
   220 C220       3.551423    14.763528    12.967923 C    1 RES 0.0000
   221 C221       4.898242     0.241260    -1.843231 C    1 RES 0.0000
   222 C222       4.898242     0.241260    12.872769 C    1 RES 0.0000
   223 C223       4.898242    14.957260    -1.843231 C    1 RES 0.0000
   224 C224       4.898242    14.957260    12.872769 C    1 RES 0.0000
   225 C225       5.772711    -0.861605    -1.957384 C    1 RES 0.0000
   226 C226       5.772711    -0.861605    12.758616 C    1 RES 0.0000
   227 C227       5.772711    13.854395    -1.957384 C    1 RES 0.0000
   228 C228       5.772711    13.854395    12.758616 C    1 RES 0.0000
   229 C229       7.169033    -0.701439    -1.921878 C    1 RES 0.0000
   230 C230       7.169033    -0.701439    12.794122 C    1 RES 0.0000
   231 C231       7.169033    14.014561    -1.921878 C    1 RES 0.0000
   232 C232       7.169033    14.014561    12.794122 C    1 RES 0.0000
   233 C233       7.980739    -1.805372    -1.895674 C    1 RES 0.0000
   234 C234       7.980739    -1.805372    12.820326 C    1 RES 0.0000
   235 C235       7.980739    12.910628    -1.895674 C    1 RES 0.0000
   236 C236       7.980739    12.910628    12.820326 C    1 RES 0.0000
   237 C237       9.447530    -1.662924    -1.754229 C    1 RES 0.0000
   238 C238       9.447530    -1.662924    12.961771 C    1 RES 0.0000
   239 C239       9.447530    13.053076    -1.754229 C    1 RES 0.0000
   240 C240       9.447530    13.053076    12.961771 C    1 RES 0.0000
   241 C241       7.453128    -3.104786    -2.011979 C    1 RES 0.0000
   242 C242       7.453128    -3.104786    12.704021 C    1 RES 0.0000
   243 C243       7.453128    11.611214    -2.011979 C    1 RES 0.0000
   244 C244       7.453128    11.611214    12.704021 C    1 RES 0.0000
   245 C245       6.106483    11.432381    -2.122884 C    1 RES 0.0000
   246 C246       6.106483    11.432381    12.593116 C    1 RES 0.0000
   247 C247       5.236715    -2.175042    -2.053965 C    1 RES 0.0000
   248 C248       5.236715    -2.175042    12.662035 C    1 RES 0.0000
   249 C249       5.236715    12.540958    -2.053965 C    1 RES 0.0000
   250 C250       5.236715    12.540958    12.662035 C    1 RES 0.0000
   251 C251       3.841585    -2.339398    -2.050293 C    1 RES 0.0000
   252 C252       3.841585    -2.339398    12.665707 C    1 RES 0.0000
   253 C253       3.841585    12.376602    -2.050293 C    1 RES 0.0000
   254 C254       3.841585    12.376602    12.665707 C    1 RES 0.0000
   255 C255      -1.906905     1.808390    -1.767912 C    1 RES 0.0000
   256 C256      -1.906905     1.808390    12.948088 C    1 RES 0.0000
   257 C257      -1.906905    16.524390    -1.767912 C    1 RES 0.0000
   258 C258      -1.906905    16.524390    12.948088 C    1 RES 0.0000
   259 C259      12.809095     1.808390    -1.767912 C    1 RES 0.0000
   260 C260      12.809095     1.808390    12.948088 C    1 RES 0.0000
   261 C261      12.809095    16.524390    -1.767912 C    1 RES 0.0000
   262 C262      12.809095    16.524390    12.948088 C    1 RES 0.0000
   263 C263      -2.075907     3.271659    -1.653143 C    1 RES 0.0000
   264 C264      -2.075907     3.271659    13.062857 C    1 RES 0.0000
   265 C265      12.640093     3.271659    -1.653143 C    1 RES 0.0000
   266 C266      12.640093     3.271659    13.062857 C    1 RES 0.0000
   267 C267      11.345408     3.818177    -1.761580 C    1 RES 0.0000
   268 C268      11.345408     3.818177    12.954420 C    1 RES 0.0000
   269 C269      11.177158     5.170310    -1.737318 C    1 RES 0.0000
   270 C270      11.177158     5.170310    12.978682 C    1 RES 0.0000
   271 C271      -2.414344     6.024846    -1.703668 C    1 RES 0.0000
   272 C272      -2.414344     6.024846    13.012332 C    1 RES 0.0000
   273 C273      12.301656     6.024846    -1.703668 C    1 RES 0.0000
   274 C274      12.301656     6.024846    13.012332 C    1 RES 0.0000
   275 C275      -2.554385     7.419674    -1.789196 C    1 RES 0.0000
   276 C276      -2.554385     7.419674    12.926804 C    1 RES 0.0000
   277 C277      12.161615     7.419674    -1.789196 C    1 RES 0.0000
   278 C278      12.161615     7.419674    12.926804 C    1 RES 0.0000
   279 C279      -1.443227     8.215877    -1.908301 C    1 RES 0.0000
   280 C280      -1.443227     8.215877    12.807699 C    1 RES 0.0000
   281 C281      13.272773     8.215877    -1.908301 C    1 RES 0.0000
   282 C282      13.272773     8.215877    12.807699 C    1 RES 0.0000
   283 C283      -1.613665     9.679287    -2.047308 C    1 RES 0.0000
   284 C284      -1.613665     9.679287    12.668692 C    1 RES 0.0000
   285 C285      13.102335     9.679287    -2.047308 C    1 RES 0.0000
   286 C286      13.102335     9.679287    12.668692 C    1 RES 0.0000
   287 C287      -0.148109     7.660786    -1.919149 C    1 RES 0.0000
   288 C288      -0.148109     7.660786    12.796851 C    1 RES 0.0000
   289 C289      14.567891     7.660786    -1.919149 C    1 RES 0.0000
   290 C290      14.567891     7.660786    12.796851 C    1 RES 0.0000
   291 C291       0.017943     6.318025    -1.746925 C    1 RES 0.0000
   292 C292       0.017943     6.318025    12.969075 C    1 RES 0.0000
   293 C293      14.733943     6.318025    -1.746925 C    1 RES 0.0000
   294 C294      14.733943     6.318025    12.969075 C    1 RES 0.0000
   295 C295      -1.105313     5.468730    -1.639109 C    1 RES 0.0000
   296 C296      -1.105313     5.468730    13.076891 C    1 RES 0.0000
   297 C297      13.610687     5.468730    -1.639109 C    1 RES 0.0000
   298 C298      13.610687     5.468730    13.076891 C    1 RES 0.0000
   299 C299      -0.968802     4.072469    -1.548216 C    1 RES 0.0000
   300 C300      -0.968802     4.072469    13.167784 C    1 RES 0.0000
   301 C301      13.747198     4.072469    -1.548216 C    1 RES 0.0000
   302 C302      13.747198     4.072469    13.167784 C    1 RES 0.0000
   303 C303      -1.864435    -1.804933     1.552937 C    1 RES 0.0000
   304 C304      -1.864435    -1.804933    16.268937 C    1 RES 0.0000
   305 C305      -1.864435    12.911067     1.552937 C    1 RES 0.0000
   306 C306      -1.864435    12.911067    16.268937 C    1 RES 0.0000
   307 C307      12.851565    -1.804933     1.552937 C    1 RES 0.0000
   308 C308      12.851565    -1.804933    16.268937 C    1 RES 0.0000
   309 C309      12.851565    12.911067     1.552937 C    1 RES 0.0000
   310 C310      12.851565    12.911067    16.268937 C    1 RES 0.0000
   311 C311      -1.834591    -1.903049     3.034372 C    1 RES 0.0000
   312 C312      -1.834591    -1.903049    17.750372 C    1 RES 0.0000
   313 C313      -1.834591    12.812951     3.034372 C    1 RES 0.0000
   314 C314      -1.834591    12.812951    17.750372 C    1 RES 0.0000
   315 C315      12.881409    -1.903049     3.034372 C    1 RES 0.0000
   316 C316      12.881409    -1.903049    17.750372 C    1 RES 0.0000
   317 C317      12.881409    12.812951     3.034372 C    1 RES 0.0000
   318 C318      12.881409    12.812951    17.750372 C    1 RES 0.0000
   319 C319      -1.903183    -3.184164     3.620313 C    1 RES 0.0000
   320 C320      -1.903183    11.531836     3.620313 C    1 RES 0.0000
   321 C321      12.812817    -3.184164     3.620313 C    1 RES 0.0000
   322 C322      12.812817    11.531836     3.620313 C    1 RES 0.0000
   323 C323      -1.838843    11.397458     4.975438 C    1 RES 0.0000
   324 C324      12.877157    11.397458     4.975438 C    1 RES 0.0000
   325 C325      -1.771045    -2.175647     5.801930 C    1 RES 0.0000
   326 C326      -1.771045    12.540353     5.801930 C    1 RES 0.0000
   327 C327      12.944955    -2.175647     5.801930 C    1 RES 0.0000
   328 C328      12.944955    12.540353     5.801930 C    1 RES 0.0000
   329 C329      -1.741089    -2.291329     7.202618 C    1 RES 0.0000
   330 C330      -1.741089    12.424671     7.202618 C    1 RES 0.0000
   331 C331      12.974911    -2.291329     7.202618 C    1 RES 0.0000
   332 C332      12.974911    12.424671     7.202618 C    1 RES 0.0000
   333 C333      -1.802679    -1.176294     7.995689 C    1 RES 0.0000
   334 C334      -1.802679    13.539706     7.995689 C    1 RES 0.0000
   335 C335      12.913321    -1.176294     7.995689 C    1 RES 0.0000
   336 C336      12.913321    13.539706     7.995689 C    1 RES 0.0000
   337 C337      -1.887009    -1.371010     9.464662 C    1 RES 0.0000
   338 C338      -1.887009    13.344990     9.464662 C    1 RES 0.0000
   339 C339      12.828991    -1.371010     9.464662 C    1 RES 0.0000
   340 C340      12.828991    13.344990     9.464662 C    1 RES 0.0000
   341 C341      -1.842094     0.110325     7.425527 C    1 RES 0.0000
   342 C342      -1.842094    14.826325     7.425527 C    1 RES 0.0000
   343 C343      12.873906     0.110325     7.425527 C    1 RES 0.0000
   344 C344      12.873906    14.826325     7.425527 C    1 RES 0.0000
   345 C345      -1.780259     0.252491     6.067504 C    1 RES 0.0000
   346 C346      -1.780259    14.968491     6.067504 C    1 RES 0.0000
   347 C347      12.935741     0.252491     6.067504 C    1 RES 0.0000
   348 C348      12.935741    14.968491     6.067504 C    1 RES 0.0000
   349 C349      -1.759567    -0.878176     5.218557 C    1 RES 0.0000
   350 C350      -1.759567    13.837824     5.218557 C    1 RES 0.0000
   351 C351      12.956433    -0.878176     5.218557 C    1 RES 0.0000
   352 C352      12.956433    13.837824     5.218557 C    1 RES 0.0000
   353 C353      -1.750512    -0.772018     3.812990 C    1 RES 0.0000
   354 C354      -1.750512    13.943982     3.812990 C    1 RES 0.0000
   355 C355      12.965488    -0.772018     3.812990 C    1 RES 0.0000
   356 C356      12.965488    13.943982     3.812990 C    1 RES 0.0000
   357 O357       7.366625     7.216159     7.416750 O    1 RES 0.0000
   358 O358      10.259460     6.590454     6.714562 O    1 RES 0.0000
   359 O359      10.130860     7.982030     8.458645 O    1 RES 0.0000
   360 O360       4.442525     7.883025     6.749401 O    1 RES 0.0000
   361 O361       4.548575     6.205373     8.217816 O    1 RES 0.0000
   362 O362       6.376176    10.019558     6.839953 O    1 RES 0.0000
   363 O363       8.138546    10.100220     8.207591 O    1 RES 0.0000
   364 O364       8.484726     4.420563     6.542906 O    1 RES 0.0000
   365 O365       6.645052     4.313306     7.797223 O    1 RES 0.0000
   366 O366       6.837632     6.012951    10.184062 O    1 RES 0.0000
   367 O367       7.906728     7.969180    10.320436 O    1 RES 0.0000
   368 O368       6.514664     8.062931     4.618058 O    1 RES 0.0000
   369 O369       8.186432     6.585748     4.563270 O    1 RES 0.0000
   370 O370      -1.841132    -1.618408    -1.864505 O    1 RES 0.0000
   371 O371      -1.841132    -1.618408    12.851495 O    1 RES 0.0000
   372 O372      -1.841132    13.097592    -1.864505 O    1 RES 0.0000
   373 O373      -1.841132    13.097592    12.851495 O    1 RES 0.0000
   374 O374      12.874868    -1.618408    -1.864505 O    1 RES 0.0000
   375 O375      12.874868    -1.618408    12.851495 O    1 RES 0.0000
   376 O376      12.874868    13.097592    -1.864505 O    1 RES 0.0000
   377 O377      12.874868    13.097592    12.851495 O    1 RES 0.0000
   378 O378       1.042221    -2.164820    -2.694103 O    1 RES 0.0000
   379 O379       1.042221    -2.164820    12.021897 O    1 RES 0.0000
   380 O380       1.042221    12.551180    -2.694103 O    1 RES 0.0000
   381 O381       1.042221    12.551180    12.021897 O    1 RES 0.0000
   382 O382      15.758221    -2.164820    -2.694103 O    1 RES 0.0000
   383 O383      15.758221    -2.164820    12.021897 O    1 RES 0.0000
   384 O384      15.758221    12.551180    -2.694103 O    1 RES 0.0000
   385 O385      15.758221    12.551180    12.021897 O    1 RES 0.0000
   386 O386       0.939056    -0.876282    -0.873729 O    1 RES 0.0000
   387 O387       0.939056    -0.876282    13.842271 O    1 RES 0.0000
   388 O388       0.939056    13.839718    -0.873729 O    1 RES 0.0000
   389 O389       0.939056    13.839718    13.842271 O    1 RES 0.0000
   390 O390      15.655056    -0.876282    -0.873729 O    1 RES 0.0000
   391 O391      15.655056    -0.876282    13.842271 O    1 RES 0.0000
   392 O392      15.655056    13.839718    -0.873729 O    1 RES 0.0000
   393 O393      15.655056    13.839718    13.842271 O    1 RES 0.0000
   394 O394       9.988531    -0.694017    -2.343509 O    1 RES 0.0000
   395 O395       9.988531    -0.694017    12.372491 O    1 RES 0.0000
   396 O396       9.988531    14.021983    -2.343509 O    1 RES 0.0000
   397 O397       9.988531    14.021983    12.372491 O    1 RES 0.0000
   398 O398      10.047518    -2.516751    -1.054493 O    1 RES 0.0000
   399 O399      10.047518    -2.516751    13.661507 O    1 RES 0.0000
   400 O400      10.047518    12.199249    -1.054493 O    1 RES 0.0000
   401 O401      10.047518    12.199249    13.661507 O    1 RES 0.0000
   402 O402      -2.680139     1.226838    -2.571221 O    1 RES 0.0000
   403 O403      -2.680139     1.226838    12.144779 O    1 RES 0.0000
   404 O404      -2.680139    15.942838    -2.571221 O    1 RES 0.0000
   405 O405      -2.680139    15.942838    12.144779 O    1 RES 0.0000
   406 O406      12.035861     1.226838    -2.571221 O    1 RES 0.0000
   407 O407      12.035861     1.226838    12.144779 O    1 RES 0.0000
   408 O408      12.035861    15.942838    -2.571221 O    1 RES 0.0000
   409 O409      12.035861    15.942838    12.144779 O    1 RES 0.0000
   410 O410      -0.991505     1.250215    -1.113583 O    1 RES 0.0000
   411 O411      -0.991505     1.250215    13.602417 O    1 RES 0.0000
   412 O412      -0.991505    15.966215    -1.113583 O    1 RES 0.0000
   413 O413      -0.991505    15.966215    13.602417 O    1 RES 0.0000
   414 O414      13.724495     1.250215    -1.113583 O    1 RES 0.0000
   415 O415      13.724495     1.250215    13.602417 O    1 RES 0.0000
   416 O416      13.724495    15.966215    -1.113583 O    1 RES 0.0000
   417 O417      13.724495    15.966215    13.602417 O    1 RES 0.0000
   418 O418      -0.754988    10.305272    -2.721282 O    1 RES 0.0000
   419 O419      -0.754988    10.305272    11.994718 O    1 RES 0.0000
   420 O420      13.961012    10.305272    -2.721282 O    1 RES 0.0000
   421 O421      13.961012    10.305272    11.994718 O    1 RES 0.0000
   422 O422      -2.611205    10.203499    -1.489099 O    1 RES 0.0000
   423 O423      -2.611205    10.203499    13.226901 O    1 RES 0.0000
   424 O424      12.104795    10.203499    -1.489099 O    1 RES 0.0000
   425 O425      12.104795    10.203499    13.226901 O    1 RES 0.0000
   426 O426      -2.398734    -2.748351     0.911718 O    1 RES 0.0000
   427 O427      -2.398734    -2.748351    15.627718 O    1 RES 0.0000
   428 O428      -2.398734    11.967649     0.911718 O    1 RES 0.0000
   429 O429      -2.398734    11.967649    15.627718 O    1 RES 0.0000
   430 O430      12.317266    -2.748351     0.911718 O    1 RES 0.0000
   431 O431      12.317266    -2.748351    15.627718 O    1 RES 0.0000
   432 O432      12.317266    11.967649     0.911718 O    1 RES 0.0000
   433 O433      12.317266    11.967649    15.627718 O    1 RES 0.0000
   434 O434      -1.360825    -0.779392     1.026585 O    1 RES 0.0000
   435 O435      -1.360825    -0.779392    15.742585 O    1 RES 0.0000
   436 O436      -1.360825    13.936608     1.026585 O    1 RES 0.0000
   437 O437      -1.360825    13.936608    15.742585 O    1 RES 0.0000
   438 O438      13.355175    -0.779392     1.026585 O    1 RES 0.0000
   439 O439      13.355175    -0.779392    15.742585 O    1 RES 0.0000
   440 O440      13.355175    13.936608     1.026585 O    1 RES 0.0000
   441 O441      13.355175    13.936608    15.742585 O    1 RES 0.0000
   442 O442      -2.794143    -0.751926    10.073278 O    1 RES 0.0000
   443 O443      -2.794143    13.964074    10.073278 O    1 RES 0.0000
   444 O444      11.921857    -0.751926    10.073278 O    1 RES 0.0000
   445 O445      11.921857    13.964074    10.073278 O    1 RES 0.0000
   446 O446      -1.075436    -2.180656     9.977393 O    1 RES 0.0000
   447 O447      -1.075436    12.535344     9.977393 O    1 RES 0.0000
   448 O448      13.640564    -2.180656     9.977393 O    1 RES 0.0000
   449 O449      13.640564    12.535344     9.977393 O    1 RES 0.0000
@<TRIPOS>BOND
     1      1    357 1
     2      1    358 1
     3      1    364 1
     4      1    369 1
     5      2    357 1
     6      2    360 1
     7      2    362 1
     8      2    368 1
     9      3    357 1
    10      3    361 1
    11      3    365 1
    12      3    366 1
    13      4    357 1
    14      4    359 1
    15      4    363 1
    16      4    367 1
    17      5    370 1
    18      5    378 1
    19      6    371 1
    20      6    379 1
    21      6    446 1
    22      7    372 1
    23      7    380 1
    24      7    418 1
    25      8    373 1
    26      8    381 1
    27      8    419 1
    28      8    447 1
    29      9    374 1
    30      9    382 1
    31     10    375 1
    32     10    383 1
    33     10    448 1
    34     11    376 1
    35     11    384 1
    36     11    420 1
    37     12    377 1
    38     12    385 1
    39     12    421 1
    40     12    449 1
    41     13    370 1
    42     13    402 1
    43     14    371 1
    44     14    403 1
    45     14    442 1
    46     15    372 1
    47     15    404 1
    48     16    373 1
    49     16    405 1
    50     16    443 1
    51     17    374 1
    52     17    394 1
    53     17    406 1
    54     18    375 1
    55     18    395 1
    56     18    407 1
    57     18    444 1
    58     19    376 1
    59     19    396 1
    60     19    408 1
    61     20    377 1
    62     20    397 1
    63     20    409 1
    64     20    445 1
    65     21    370 1
    66     21    426 1
    67     22    371 1
    68     22    427 1
    69     23    372 1
    70     23    422 1
    71     23    428 1
    72     24    373 1
    73     24    423 1
    74     24    429 1
    75     25    374 1
    76     25    398 1
    77     25    430 1
    78     26    375 1
    79     26    399 1
    80     26    431 1
    81     27    376 1
    82     27    400 1
    83     27    424 1
    84     27    432 1
    85     28    377 1
    86     28    401 1
    87     28    425 1
    88     28    433 1
    89     29    370 1
    90     29    386 1
    91     29    410 1
    92     29    434 1
    93     30    371 1
    94     30    387 1
    95     30    411 1
    96     30    435 1
    97     31    372 1
    98     31    388 1
    99     31    412 1
   100     31    436 1
   101     32    373 1
   102     32    389 1
   103     32    413 1
   104     32    437 1
   105     33    374 1
   106     33    390 1
   107     33    414 1
   108     33    438 1
   109     34    375 1
   110     34    391 1
   111     34    415 1
   112     34    439 1
   113     35    376 1
   114     35    392 1
   115     35    416 1
   116     35    440 1
   117     36    377 1
   118     36    393 1
   119     36    417 1
   120     36    441 1
   121     37    138 1
   122     38    139 1
   123     39    140 1
   124     40    141 1
   125     41    144 1
   126     42    145 1
   127     43    149 1
   128     44    150 1
   129     45    151 1
   130     46    152 1
   131     47    155 1
   132     48    156 1
   133     49    160 1
   134     50    161 1
   135     51    162 1
   136     52    163 1
   137     53    166 1
   138     54    167 1
   139     55    171 1
   140     56    172 1
   141     57    173 1
   142     58    174 1
   143     59    177 1
   144     60    178 1
   145     61    182 1
   146     62    183 1
   147     63    184 1
   148     64    185 1
   149     65    188 1
   150     66    189 1
   151     67    193 1
   152     68    194 1
   153     69    195 1
   154     70    196 1
   155     71    199 1
   156     72    200 1
   157     73    217 1
   158     74    218 1
   159     75    219 1
   160     76    220 1
   161     81    221 1
   162     82    222 1
   163     83    223 1
   164     84    224 1
   165     85    229 1
   166     86    230 1
   167     87    231 1
   168     88    232 1
   169     89    243 1
   170     90    244 1
   171     91    245 1
   172     92    246 1
   173     93    253 1
   174     94    254 1
   175     95    267 1
   176     96    268 1
   177     99    269 1
   178    100    270 1
   179    101    277 1
   180    102    278 1
   181    103    287 1
   182    104    288 1
   183    105    289 1
   184    106    290 1
   185    107    291 1
   186    108    292 1
   187    109    293 1
   188    110    294 1
   189    111    299 1
   190    112    300 1
   191    113    301 1
   192    114    302 1
   193    115    320 1
   194    117    322 1
   195    119    323 1
   196    120    324 1
   197    121    330 1
   198    122    332 1
   199    123    341 1
   200    124    342 1
   201    125    343 1
   202    126    344 1
   203    127    345 1
   204    128    346 1
   205    129    347 1
   206    130    348 1
   207    131    353 1
   208    132    354 1
   209    133    355 1
   210    134    356 1
   211    135    137 1
   212    135    358 1
   213    135    359 1
   214    136    138 1
   215    136    155 1
   216    137    139 1
   217    137    156 1
   218    138    140 1
   219    139    141 1
   220    140    142 1
   221    141    143 1
   222    142    144 1
   223    142    153 1
   224    143    145 1
   225    143    154 1
   226    144    146 1
   227    145    147 1
   228    146    148 1
   229    146    149 1
   230    147    150 1
   231    148    360 1
   232    148    361 1
   233    149    151 1
   234    150    152 1
   235    151    153 1
   236    152    154 1
   237    153    155 1
   238    154    156 1
   239    157    159 1
   240    157    362 1
   241    157    363 1
   242    158    160 1
   243    158    177 1
   244    159    161 1
   245    159    178 1
   246    160    162 1
   247    161    163 1
   248    162    164 1
   249    163    165 1
   250    164    166 1
   251    164    175 1
   252    165    167 1
   253    165    176 1
   254    166    168 1
   255    167    169 1
   256    168    170 1
   257    168    171 1
   258    169    172 1
   259    170    364 1
   260    170    365 1
   261    171    173 1
   262    172    174 1
   263    173    175 1
   264    174    176 1
   265    175    177 1
   266    176    178 1
   267    179    181 1
   268    179    366 1
   269    179    367 1
   270    180    182 1
   271    180    199 1
   272    181    183 1
   273    181    200 1
   274    182    184 1
   275    183    185 1
   276    184    186 1
   277    185    187 1
   278    186    188 1
   279    186    197 1
   280    187    189 1
   281    187    198 1
   282    188    190 1
   283    189    191 1
   284    190    192 1
   285    190    193 1
   286    191    194 1
   287    192    368 1
   288    192    369 1
   289    193    195 1
   290    194    196 1
   291    195    197 1
   292    196    198 1
   293    197    199 1
   294    198    200 1
   295    201    209 1
   296    201    378 1
   297    201    386 1
   298    202    210 1
   299    202    379 1
   300    202    387 1
   301    203    211 1
   302    203    380 1
   303    203    388 1
   304    204    212 1
   305    204    381 1
   306    204    389 1
   307    205    213 1
   308    205    382 1
   309    205    390 1
   310    206    214 1
   311    206    383 1
   312    206    391 1
   313    207    215 1
   314    207    384 1
   315    207    392 1
   316    208    216 1
   317    208    385 1
   318    208    393 1
   319    209    217 1
   320    209    251 1
   321    210    218 1
   322    210    252 1
   323    211    219 1
   324    211    253 1
   325    212    220 1
   326    212    254 1
   327    217    221 1
   328    218    222 1
   329    219    223 1
   330    220    224 1
   331    221    225 1
   332    222    226 1
   333    223    227 1
   334    224    228 1
   335    225    229 1
   336    225    247 1
   337    226    230 1
   338    226    248 1
   339    227    231 1
   340    227    249 1
   341    228    232 1
   342    228    250 1
   343    229    233 1
   344    230    234 1
   345    231    235 1
   346    232    236 1
   347    233    237 1
   348    233    241 1
   349    234    238 1
   350    234    242 1
   351    235    239 1
   352    235    243 1
   353    236    240 1
   354    236    244 1
   355    237    394 1
   356    237    398 1
   357    238    395 1
   358    238    399 1
   359    239    396 1
   360    239    400 1
   361    240    397 1
   362    240    401 1
   363    243    245 1
   364    244    246 1
   365    245    249 1
   366    246    250 1
   367    247    251 1
   368    248    252 1
   369    249    253 1
   370    250    254 1
   371    255    263 1
   372    255    402 1
   373    255    410 1
   374    256    264 1
   375    256    403 1
   376    256    411 1
   377    257    404 1
   378    257    412 1
   379    258    405 1
   380    258    413 1
   381    259    265 1
   382    259    406 1
   383    259    414 1
   384    260    266 1
   385    260    407 1
   386    260    415 1
   387    261    408 1
   388    261    416 1
   389    262    409 1
   390    262    417 1
   391    263    299 1
   392    264    300 1
   393    265    267 1
   394    265    301 1
   395    266    268 1
   396    266    302 1
   397    267    269 1
   398    268    270 1
   399    269    273 1
   400    270    274 1
   401    271    275 1
   402    271    295 1
   403    272    276 1
   404    272    296 1
   405    273    277 1
   406    273    297 1
   407    274    278 1
   408    274    298 1
   409    275    279 1
   410    276    280 1
   411    277    281 1
   412    278    282 1
   413    279    283 1
   414    279    287 1
   415    280    284 1
   416    280    288 1
   417    281    285 1
   418    281    289 1
   419    282    286 1
   420    282    290 1
   421    283    418 1
   422    283    422 1
   423    284    419 1
   424    284    423 1
   425    285    420 1
   426    285    424 1
   427    286    421 1
   428    286    425 1
   429    287    291 1
   430    288    292 1
   431    289    293 1
   432    290    294 1
   433    291    295 1
   434    292    296 1
   435    293    297 1
   436    294    298 1
   437    295    299 1
   438    296    300 1
   439    297    301 1
   440    298    302 1
   441    303    311 1
   442    303    426 1
   443    303    434 1
   444    304    312 1
   445    304    427 1
   446    304    435 1
   447    305    313 1
   448    305    428 1
   449    305    436 1
   450    306    314 1
   451    306    429 1
   452    306    437 1
   453    307    315 1
   454    307    430 1
   455    307    438 1
   456    308    316 1
   457    308    431 1
   458    308    439 1
   459    309    317 1
   460    309    432 1
   461    309    440 1
   462    310    318 1
   463    310    433 1
   464    310    441 1
   465    311    319 1
   466    311    353 1
   467    313    320 1
   468    313    354 1
   469    315    321 1
   470    315    355 1
   471    317    322 1
   472    317    356 1
   473    320    323 1
   474    322    324 1
   475    323    326 1
   476    324    328 1
   477    325    329 1
   478    325    349 1
   479    326    330 1
   480    326    350 1
   481    327    331 1
   482    327    351 1
   483    328    332 1
   484    328    352 1
   485    329    333 1
   486    330    334 1
   487    331    335 1
   488    332    336 1
   489    333    337 1
   490    333    341 1
   491    334    338 1
   492    334    342 1
   493    335    339 1
   494    335    343 1
   495    336    340 1
   496    336    344 1
   497    337    442 1
   498    337    446 1
   499    338    443 1
   500    338    447 1
   501    339    444 1
   502    339    448 1
   503    340    445 1
   504    340    449 1
   505    341    345 1
   506    342    346 1
   507    343    347 1
   508    344    348 1
   509    345    349 1
   510    346    350 1
   511    347    351 1
   512    348    352 1
   513    349    353 1
   514    350    354 1
   515    351    355 1
   516    352    356 1
