@<TRIPOS>MOLECULE
ndc_zn4o_pcu_ip2_off400
451 524 0 0 0
SMALL
NO_CHARGES

@<TRIPOS>ATOM
     1 Zn1         8.477642     6.322189     6.350475 Zn   1 RES 0.0000
     2 Zn2         6.233973     8.296422     6.433490 Zn   1 RES 0.0000
     3 Zn3         6.404144     6.137133     8.371353 Zn   1 RES 0.0000
     4 Zn4         8.322283     8.401214     8.527414 Zn   1 RES 0.0000
     5 Zn5        -0.436017    -2.376773    -2.623145 Zn   1 RES 0.0000
     6 Zn6        -0.436017    -2.376773    12.092855 Zn   1 RES 0.0000
     7 Zn7        -0.436017    12.339227    -2.623145 Zn   1 RES 0.0000
     8 Zn8        -0.436017    12.339227    12.092855 Zn   1 RES 0.0000
     9 Zn9        14.279983    -2.376773    -2.623145 Zn   1 RES 0.0000
    10 Zn10       14.279983    -2.376773    12.092855 Zn   1 RES 0.0000
    11 Zn11       14.279983    12.339227    -2.623145 Zn   1 RES 0.0000
    12 Zn12       14.279983    12.339227    12.092855 Zn   1 RES 0.0000
    13 Zn13       -2.650180    -0.368674    -2.482244 Zn   1 RES 0.0000
    14 Zn14       -2.650180    -0.368674    12.233756 Zn   1 RES 0.0000
    15 Zn15       -2.650180    14.347326    -2.482244 Zn   1 RES 0.0000
    16 Zn16       -2.650180    14.347326    12.233756 Zn   1 RES 0.0000
    17 Zn17       12.065820    -0.368674    -2.482244 Zn   1 RES 0.0000
    18 Zn18       12.065820    -0.368674    12.233756 Zn   1 RES 0.0000
    19 Zn19       12.065820    14.347326    -2.482244 Zn   1 RES 0.0000
    20 Zn20       12.065820    14.347326    12.233756 Zn   1 RES 0.0000
    21 Zn21       -2.521547    -2.547704    -0.582476 Zn   1 RES 0.0000
    22 Zn22       -2.521547    -2.547704    14.133524 Zn   1 RES 0.0000
    23 Zn23       -2.521547    12.168296    -0.582476 Zn   1 RES 0.0000
    24 Zn24       -2.521547    12.168296    14.133524 Zn   1 RES 0.0000
    25 Zn25       12.194453    -2.547704    -0.582476 Zn   1 RES 0.0000
    26 Zn26       12.194453    -2.547704    14.133524 Zn   1 RES 0.0000
    27 Zn27       12.194453    12.168296    -0.582476 Zn   1 RES 0.0000
    28 Zn28       12.194453    12.168296    14.133524 Zn   1 RES 0.0000
    29 Zn29       -0.570974    -0.307345    -0.414745 Zn   1 RES 0.0000
    30 Zn30       -0.570974    -0.307345    14.301255 Zn   1 RES 0.0000
    31 Zn31       -0.570974    14.408655    -0.414745 Zn   1 RES 0.0000
    32 Zn32       -0.570974    14.408655    14.301255 Zn   1 RES 0.0000
    33 Zn33       14.145026    -0.307345    -0.414745 Zn   1 RES 0.0000
    34 Zn34       14.145026    -0.307345    14.301255 Zn   1 RES 0.0000
    35 Zn35       14.145026    14.408655    -0.414745 Zn   1 RES 0.0000
    36 Zn36       14.145026    14.408655    14.301255 Zn   1 RES 0.0000
    37 H37       -2.574450     9.651603     7.856411 H    1 RES 0.0000
    38 H38       12.141550     9.651603     7.856411 H    1 RES 0.0000
    39 H39       -0.093312     9.951583     7.664221 H    1 RES 0.0000
    40 H40       14.622688     9.951583     7.664221 H    1 RES 0.0000
    41 H41        2.134662     8.973512     7.353581 H    1 RES 0.0000
    42 H42       16.850662     8.973512     7.353581 H    1 RES 0.0000
    43 H43        2.600678     4.737562     7.347845 H    1 RES 0.0000
    44 H44       17.316678     4.737562     7.347845 H    1 RES 0.0000
    45 H45        0.137594     4.444474     7.208102 H    1 RES 0.0000
    46 H46       14.853594     4.444474     7.208102 H    1 RES 0.0000
    47 H47       -2.152403     5.471139     7.191214 H    1 RES 0.0000
    48 H48       12.563597     5.471139     7.191214 H    1 RES 0.0000
    49 H49        4.932586    -2.627292     7.259363 H    1 RES 0.0000
    50 H50        4.932586    12.088708     7.259363 H    1 RES 0.0000
    51 H51        4.666689    -0.150280     7.363326 H    1 RES 0.0000
    52 H52        4.666689    14.565720     7.363326 H    1 RES 0.0000
    53 H53        5.688239     2.083182     7.509171 H    1 RES 0.0000
    54 H54        5.688239    16.799182     7.509171 H    1 RES 0.0000
    55 H55        9.916645     2.495782     7.195858 H    1 RES 0.0000
    56 H56        9.916645    17.211782     7.195858 H    1 RES 0.0000
    57 H57       10.193678     0.027209     7.454431 H    1 RES 0.0000
    58 H58       10.193678    14.743209     7.454431 H    1 RES 0.0000
    59 H59        9.159820    -2.209766     7.655301 H    1 RES 0.0000
    60 H60        9.159820    12.506234     7.655301 H    1 RES 0.0000
    61 H61        7.286278     4.802302    -2.582761 H    1 RES 0.0000
    62 H62        7.286278     4.802302    12.133239 H    1 RES 0.0000
    63 H63        7.422718     4.451363    -0.125900 H    1 RES 0.0000
    64 H64        7.422718     4.451363    14.590100 H    1 RES 0.0000
    65 H65        7.510511     5.424112     2.174525 H    1 RES 0.0000
    66 H66        7.510511     5.424112    16.890525 H    1 RES 0.0000
    67 H67        7.274934     9.647145     2.676146 H    1 RES 0.0000
    68 H68        7.274934     9.647145    17.392146 H    1 RES 0.0000
    69 H69        7.595199     9.984874     0.243478 H    1 RES 0.0000
    70 H70        7.595199     9.984874    14.959478 H    1 RES 0.0000
    71 H71        7.744404     8.992214    -2.057232 H    1 RES 0.0000
    72 H72        7.744404     8.992214    12.658768 H    1 RES 0.0000
    73 H73        3.210466     1.101365    -1.313090 H    1 RES 0.0000
    74 H74        3.210466     1.101365    13.402910 H    1 RES 0.0000
    75 H75        3.210466    15.817365    -1.313090 H    1 RES 0.0000
    76 H76        3.210466    15.817365    13.402910 H    1 RES 0.0000
    77 H77       17.926466     1.101365    -1.313090 H    1 RES 0.0000
    78 H78       17.926466     1.101365    13.402910 H    1 RES 0.0000
    79 H79       17.926466    15.817365    -1.313090 H    1 RES 0.0000
    80 H80       17.926466    15.817365    13.402910 H    1 RES 0.0000
    81 H81        5.664625     1.430028    -1.495739 H    1 RES 0.0000
    82 H82        5.664625     1.430028    13.220261 H    1 RES 0.0000
    83 H83        5.664625    16.146028    -1.495739 H    1 RES 0.0000
    84 H84        5.664625    16.146028    13.220261 H    1 RES 0.0000
    85 H85        7.945372     0.450240    -1.593977 H    1 RES 0.0000
    86 H86        7.945372     0.450240    13.122023 H    1 RES 0.0000
    87 H87        7.945372    15.166240    -1.593977 H    1 RES 0.0000
    88 H88        7.945372    15.166240    13.122023 H    1 RES 0.0000
    89 H89        8.450302    10.947766    -1.692317 H    1 RES 0.0000
    90 H90        8.450302    10.947766    13.023683 H    1 RES 0.0000
    91 H91        5.975580    10.626365    -1.861158 H    1 RES 0.0000
    92 H92        5.975580    10.626365    12.854842 H    1 RES 0.0000
    93 H93        3.698786    -3.100107    -1.839076 H    1 RES 0.0000
    94 H94        3.698786    -3.100107    12.876924 H    1 RES 0.0000
    95 H95        3.698786    11.615893    -1.839076 H    1 RES 0.0000
    96 H96        3.698786    11.615893    12.876924 H    1 RES 0.0000
    97 H97       10.762074     3.378991    -1.609732 H    1 RES 0.0000
    98 H98       10.762074     3.378991    13.106268 H    1 RES 0.0000
    99 H99       10.479733     5.858898    -1.490698 H    1 RES 0.0000
   100 H100      10.479733     5.858898    13.225302 H    1 RES 0.0000
   101 H101      -3.220647     8.097511    -1.401711 H    1 RES 0.0000
   102 H102      -3.220647     8.097511    13.314289 H    1 RES 0.0000
   103 H103      11.495353     8.097511    -1.401711 H    1 RES 0.0000
   104 H104      11.495353     8.097511    13.314289 H    1 RES 0.0000
   105 H105       1.015602     8.513881    -1.715957 H    1 RES 0.0000
   106 H106       1.015602     8.513881    13.000043 H    1 RES 0.0000
   107 H107      15.731602     8.513881    -1.715957 H    1 RES 0.0000
   108 H108      15.731602     8.513881    13.000043 H    1 RES 0.0000
   109 H109       1.288125     6.053008    -1.440641 H    1 RES 0.0000
   110 H110       1.288125     6.053008    13.275359 H    1 RES 0.0000
   111 H111      16.004125     6.053008    -1.440641 H    1 RES 0.0000
   112 H112      16.004125     6.053008    13.275359 H    1 RES 0.0000
   113 H113       0.266209     3.812758    -1.232408 H    1 RES 0.0000
   114 H114       0.266209     3.812758    13.483592 H    1 RES 0.0000
   115 H115      14.982209     3.812758    -1.232408 H    1 RES 0.0000
   116 H116      14.982209     3.812758    13.483592 H    1 RES 0.0000
   117 H117      -1.731000    10.956891     3.213266 H    1 RES 0.0000
   118 H118      -1.731000    10.956891    17.929266 H    1 RES 0.0000
   119 H119      12.985000    10.956891     3.213266 H    1 RES 0.0000
   120 H120      12.985000    10.956891    17.929266 H    1 RES 0.0000
   121 H121      -1.607465    10.622679     5.670302 H    1 RES 0.0000
   122 H122      13.108535    10.622679     5.670302 H    1 RES 0.0000
   123 H123      -1.494720    -3.102736     7.960080 H    1 RES 0.0000
   124 H124      -1.494720    11.613264     7.960080 H    1 RES 0.0000
   125 H125      13.221280    -3.102736     7.960080 H    1 RES 0.0000
   126 H126      13.221280    11.613264     7.960080 H    1 RES 0.0000
   127 H127      -1.630787     1.110931     8.468701 H    1 RES 0.0000
   128 H128      -1.630787    15.826931     8.468701 H    1 RES 0.0000
   129 H129      13.085213     1.110931     8.468701 H    1 RES 0.0000
   130 H130      13.085213    15.826931     8.468701 H    1 RES 0.0000
   131 H131      -1.436442     1.440428     6.016084 H    1 RES 0.0000
   132 H132      -1.436442    16.156428     6.016084 H    1 RES 0.0000
   133 H133      13.279558     1.440428     6.016084 H    1 RES 0.0000
   134 H134      13.279558    16.156428     6.016084 H    1 RES 0.0000
   135 H135      -1.347409     0.453414     3.714978 H    1 RES 0.0000
   136 H136      -1.347409    15.169414     3.714978 H    1 RES 0.0000
   137 H137      13.368591     0.453414     3.714978 H    1 RES 0.0000
   138 H138      13.368591    15.169414     3.714978 H    1 RES 0.0000
   139 C139      10.769917     7.421893     7.540146 C    1 RES 0.0000
   140 C140      -2.470323     7.546676     7.505844 C    1 RES 0.0000
   141 C141      12.245677     7.546676     7.505844 C    1 RES 0.0000
   142 C142      -1.904842     8.824858     7.671619 C    1 RES 0.0000
   143 C143      12.811158     8.824858     7.671619 C    1 RES 0.0000
   144 C144      -0.553730     8.979847     7.570528 C    1 RES 0.0000
   145 C145      14.162270     8.979847     7.570528 C    1 RES 0.0000
   146 C146       0.283973     7.858042     7.391576 C    1 RES 0.0000
   147 C147      14.999973     7.858042     7.391576 C    1 RES 0.0000
   148 C148       1.682499     7.993347     7.345391 C    1 RES 0.0000
   149 C149      16.398499     7.993347     7.345391 C    1 RES 0.0000
   150 C150       2.481178     6.878807     7.343087 C    1 RES 0.0000
   151 C151      17.197178     6.878807     7.343087 C    1 RES 0.0000
   152 C152       3.948869     7.054180     7.428815 C    1 RES 0.0000
   153 C153       1.928200     5.582638     7.323144 C    1 RES 0.0000
   154 C154      16.644200     5.582638     7.323144 C    1 RES 0.0000
   155 C155       0.572874     5.431370     7.257453 C    1 RES 0.0000
   156 C156      15.288874     5.431370     7.257453 C    1 RES 0.0000
   157 C157      -0.283752     6.556150     7.306535 C    1 RES 0.0000
   158 C158      14.432248     6.556150     7.306535 C    1 RES 0.0000
   159 C159      -1.686628     6.437187     7.312049 C    1 RES 0.0000
   160 C160      13.029372     6.437187     7.312049 C    1 RES 0.0000
   161 C161       7.200763    10.712980     7.441334 C    1 RES 0.0000
   162 C162       7.064713    -2.532505     7.478843 C    1 RES 0.0000
   163 C163       7.064713    12.183495     7.478843 C    1 RES 0.0000
   164 C164       5.779294    -1.967211     7.364133 C    1 RES 0.0000
   165 C165       5.779294    12.748789     7.364133 C    1 RES 0.0000
   166 C166       5.640876    -0.612257     7.410979 C    1 RES 0.0000
   167 C167       5.640876    14.103743     7.410979 C    1 RES 0.0000
   168 C168       6.777932     0.222238     7.479062 C    1 RES 0.0000
   169 C169       6.777932    14.938238     7.479062 C    1 RES 0.0000
   170 C170       6.662362     1.621013     7.476169 C    1 RES 0.0000
   171 C171       6.662362    16.337013     7.476169 C    1 RES 0.0000
   172 C172       7.785310     2.401345     7.380274 C    1 RES 0.0000
   173 C173       7.785310    17.117345     7.380274 C    1 RES 0.0000
   174 C174       7.628096     3.866514     7.312426 C    1 RES 0.0000
   175 C175       9.073353     1.835447     7.323606 C    1 RES 0.0000
   176 C176       9.073353    16.551447     7.323606 C    1 RES 0.0000
   177 C177       9.216045     0.484487     7.443363 C    1 RES 0.0000
   178 C178       9.216045    15.200487     7.443363 C    1 RES 0.0000
   179 C179       8.078621    -0.350920     7.514093 C    1 RES 0.0000
   180 C180       8.078621    14.365080     7.514093 C    1 RES 0.0000
   181 C181       8.187543    -1.750388     7.572640 C    1 RES 0.0000
   182 C182       8.187543    12.965612     7.572640 C    1 RES 0.0000
   183 C183       7.393452     7.132935    10.822293 C    1 RES 0.0000
   184 C184       7.502454     6.929572    -2.430963 C    1 RES 0.0000
   185 C185       7.502454     6.929572    12.285037 C    1 RES 0.0000
   186 C186       7.406014     5.627482    -1.898035 C    1 RES 0.0000
   187 C187       7.406014     5.627482    12.817965 C    1 RES 0.0000
   188 C188       7.469913     5.445794    -0.546666 C    1 RES 0.0000
   189 C189       7.469913     5.445794    14.169334 C    1 RES 0.0000
   190 C190       7.544047     6.554671     0.331202 C    1 RES 0.0000
   191 C191       7.544047     6.554671    15.047202 C    1 RES 0.0000
   192 C192       7.506603     6.407115     1.731787 C    1 RES 0.0000
   193 C193       7.506603     6.407115    16.447787 C    1 RES 0.0000
   194 C194       7.407351     7.508885     2.542124 C    1 RES 0.0000
   195 C195       7.407351     7.508885    17.258124 C    1 RES 0.0000
   196 C196       7.327827     7.353446     4.016986 C    1 RES 0.0000
   197 C197       7.397674     8.810799     2.005754 C    1 RES 0.0000
   198 C198       7.397674     8.810799    16.721754 C    1 RES 0.0000
   199 C199       7.553140     8.989081     0.661140 C    1 RES 0.0000
   200 C200       7.553140     8.989081    15.377140 C    1 RES 0.0000
   201 C201       7.609169     7.872355    -0.207321 C    1 RES 0.0000
   202 C202       7.609169     7.872355    14.508679 C    1 RES 0.0000
   203 C203       7.647527     8.018063    -1.607069 C    1 RES 0.0000
   204 C204       7.647527     8.018063    13.108931 C    1 RES 0.0000
   205 C205       1.866320    -1.200704    -1.492218 C    1 RES 0.0000
   206 C206       1.866320    -1.200704    13.223782 C    1 RES 0.0000
   207 C207       1.866320    13.515296    -1.492218 C    1 RES 0.0000
   208 C208       1.866320    13.515296    13.223782 C    1 RES 0.0000
   209 C209      16.582320    -1.200704    -1.492218 C    1 RES 0.0000
   210 C210      16.582320    -1.200704    13.223782 C    1 RES 0.0000
   211 C211      16.582320    13.515296    -1.492218 C    1 RES 0.0000
   212 C212      16.582320    13.515296    13.223782 C    1 RES 0.0000
   213 C213       3.338809    -1.024141    -1.569657 C    1 RES 0.0000
   214 C214       3.338809    -1.024141    13.146343 C    1 RES 0.0000
   215 C215       3.338809    13.691859    -1.569657 C    1 RES 0.0000
   216 C216       3.338809    13.691859    13.146343 C    1 RES 0.0000
   217 C217       3.883589     0.269793    -1.454424 C    1 RES 0.0000
   218 C218       3.883589     0.269793    13.261576 C    1 RES 0.0000
   219 C219       3.883589    14.985793    -1.454424 C    1 RES 0.0000
   220 C220       3.883589    14.985793    13.261576 C    1 RES 0.0000
   221 C221       5.234516     0.441029    -1.543832 C    1 RES 0.0000
   222 C222       5.234516     0.441029    13.172168 C    1 RES 0.0000
   223 C223       5.234516    15.157029    -1.543832 C    1 RES 0.0000
   224 C224       5.234516    15.157029    13.172168 C    1 RES 0.0000
   225 C225       6.097194    -0.672827    -1.657327 C    1 RES 0.0000
   226 C226       6.097194    -0.672827    13.058673 C    1 RES 0.0000
   227 C227       6.097194    14.043173    -1.657327 C    1 RES 0.0000
   228 C228       6.097194    14.043173    13.058673 C    1 RES 0.0000
   229 C229       7.496972    -0.530982    -1.636645 C    1 RES 0.0000
   230 C230       7.496972    -0.530982    13.079355 C    1 RES 0.0000
   231 C231       7.496972    14.185018    -1.636645 C    1 RES 0.0000
   232 C232       7.496972    14.185018    13.079355 C    1 RES 0.0000
   233 C233       8.299205    -1.643536    -1.616781 C    1 RES 0.0000
   234 C234       8.299205    -1.643536    13.099219 C    1 RES 0.0000
   235 C235       8.299205    13.072464    -1.616781 C    1 RES 0.0000
   236 C236       8.299205    13.072464    13.099219 C    1 RES 0.0000
   237 C237       9.764403    -1.500362    -1.478919 C    1 RES 0.0000
   238 C238       9.764403    -1.500362    13.237081 C    1 RES 0.0000
   239 C239       9.764403    13.215638    -1.478919 C    1 RES 0.0000
   240 C240       9.764403    13.215638    13.237081 C    1 RES 0.0000
   241 C241       7.757069    -2.939801    -1.694053 C    1 RES 0.0000
   242 C242       7.757069    -2.939801    13.021947 C    1 RES 0.0000
   243 C243       7.757069    11.776199    -1.694053 C    1 RES 0.0000
   244 C244       7.757069    11.776199    13.021947 C    1 RES 0.0000
   245 C245       6.405879    -3.101752    -1.787794 C    1 RES 0.0000
   246 C246       6.405879    -3.101752    12.928206 C    1 RES 0.0000
   247 C247       6.405879    11.614248    -1.787794 C    1 RES 0.0000
   248 C248       6.405879    11.614248    12.928206 C    1 RES 0.0000
   249 C249       5.544055    -1.981849    -1.741546 C    1 RES 0.0000
   250 C250       5.544055    -1.981849    12.974454 C    1 RES 0.0000
   251 C251       5.544055    12.734151    -1.741546 C    1 RES 0.0000
   252 C252       5.544055    12.734151    12.974454 C    1 RES 0.0000
   253 C253       4.143458    -2.121575    -1.741174 C    1 RES 0.0000
   254 C254       4.143458    -2.121575    12.974826 C    1 RES 0.0000
   255 C255       4.143458    12.594425    -1.741174 C    1 RES 0.0000
   256 C256       4.143458    12.594425    12.974826 C    1 RES 0.0000
   257 C257      -1.653544     2.024569    -1.493067 C    1 RES 0.0000
   258 C258      -1.653544     2.024569    13.222933 C    1 RES 0.0000
   259 C259      -1.653544    16.740569    -1.493067 C    1 RES 0.0000
   260 C260      -1.653544    16.740569    13.222933 C    1 RES 0.0000
   261 C261      13.062456     2.024569    -1.493067 C    1 RES 0.0000
   262 C262      13.062456     2.024569    13.222933 C    1 RES 0.0000
   263 C263      13.062456    16.740569    -1.493067 C    1 RES 0.0000
   264 C264      13.062456    16.740569    13.222933 C    1 RES 0.0000
   265 C265      -1.822000     3.488229    -1.408774 C    1 RES 0.0000
   266 C266      -1.822000     3.488229    13.307226 C    1 RES 0.0000
   267 C267      12.894000     3.488229    -1.408774 C    1 RES 0.0000
   268 C268      12.894000     3.488229    13.307226 C    1 RES 0.0000
   269 C269      -3.111837     4.046188    -1.509014 C    1 RES 0.0000
   270 C270      -3.111837     4.046188    13.206986 C    1 RES 0.0000
   271 C271      11.604163     4.046188    -1.509014 C    1 RES 0.0000
   272 C272      11.604163     4.046188    13.206986 C    1 RES 0.0000
   273 C273      11.457040     5.400792    -1.454659 C    1 RES 0.0000
   274 C274      11.457040     5.400792    13.261341 C    1 RES 0.0000
   275 C275      -2.125120     6.242580    -1.401687 C    1 RES 0.0000
   276 C276      -2.125120     6.242580    13.314313 C    1 RES 0.0000
   277 C277      12.590880     6.242580    -1.401687 C    1 RES 0.0000
   278 C278      12.590880     6.242580    13.314313 C    1 RES 0.0000
   279 C279      -2.243219     7.641834    -1.426888 C    1 RES 0.0000
   280 C280      -2.243219     7.641834    13.289112 C    1 RES 0.0000
   281 C281      12.472781     7.641834    -1.426888 C    1 RES 0.0000
   282 C282      12.472781     7.641834    13.289112 C    1 RES 0.0000
   283 C283      -1.122422     8.425935    -1.538935 C    1 RES 0.0000
   284 C284      -1.122422     8.425935    13.177065 C    1 RES 0.0000
   285 C285      13.593578     8.425935    -1.538935 C    1 RES 0.0000
   286 C286      13.593578     8.425935    13.177065 C    1 RES 0.0000
   287 C287      -1.280337     9.892468    -1.637254 C    1 RES 0.0000
   288 C288      -1.280337     9.892468    13.078746 C    1 RES 0.0000
   289 C289      13.435663     9.892468    -1.637254 C    1 RES 0.0000
   290 C290      13.435663     9.892468    13.078746 C    1 RES 0.0000
   291 C291       0.167253     7.860595    -1.583837 C    1 RES 0.0000
   292 C292       0.167253     7.860595    13.132163 C    1 RES 0.0000
   293 C293      14.883253     7.860595    -1.583837 C    1 RES 0.0000
   294 C294      14.883253     7.860595    13.132163 C    1 RES 0.0000
   295 C295       0.311044     6.511260    -1.448234 C    1 RES 0.0000
   296 C296       0.311044     6.511260    13.267766 C    1 RES 0.0000
   297 C297      15.027044     6.511260    -1.448234 C    1 RES 0.0000
   298 C298      15.027044     6.511260    13.267766 C    1 RES 0.0000
   299 C299      -0.822814     5.673654    -1.367673 C    1 RES 0.0000
   300 C300      -0.822814     5.673654    13.348327 C    1 RES 0.0000
   301 C301      13.893186     5.673654    -1.367673 C    1 RES 0.0000
   302 C302      13.893186     5.673654    13.348327 C    1 RES 0.0000
   303 C303      -0.704747     4.275341    -1.310333 C    1 RES 0.0000
   304 C304      -0.704747     4.275341    13.405667 C    1 RES 0.0000
   305 C305      14.011253     4.275341    -1.310333 C    1 RES 0.0000
   306 C306      14.011253     4.275341    13.405667 C    1 RES 0.0000
   307 C307      -1.579844    -1.479965     1.874430 C    1 RES 0.0000
   308 C308      -1.579844    -1.479965    16.590430 C    1 RES 0.0000
   309 C309      -1.579844    13.236035     1.874430 C    1 RES 0.0000
   310 C310      -1.579844    13.236035    16.590430 C    1 RES 0.0000
   311 C311      13.136156    -1.479965     1.874430 C    1 RES 0.0000
   312 C312      13.136156    -1.479965    16.590430 C    1 RES 0.0000
   313 C313      13.136156    13.236035     1.874430 C    1 RES 0.0000
   314 C314      13.136156    13.236035    16.590430 C    1 RES 0.0000
   315 C315      -1.541973    -1.626764     3.349356 C    1 RES 0.0000
   316 C316      -1.541973    13.089236     3.349356 C    1 RES 0.0000
   317 C317      13.174027    -1.626764     3.349356 C    1 RES 0.0000
   318 C318      13.174027    13.089236     3.349356 C    1 RES 0.0000
   319 C319      -1.627731    -2.925713     3.891351 C    1 RES 0.0000
   320 C320      -1.627731    11.790287     3.891351 C    1 RES 0.0000
   321 C321      13.088269    -2.925713     3.891351 C    1 RES 0.0000
   322 C322      13.088269    11.790287     3.891351 C    1 RES 0.0000
   323 C323      -1.569231    -3.100925     5.242804 C    1 RES 0.0000
   324 C324      -1.569231    11.615075     5.242804 C    1 RES 0.0000
   325 C325      13.146769    -3.100925     5.242804 C    1 RES 0.0000
   326 C326      13.146769    11.615075     5.242804 C    1 RES 0.0000
   327 C327      -1.493308    -1.982712     6.107430 C    1 RES 0.0000
   328 C328      -1.493308    12.733288     6.107430 C    1 RES 0.0000
   329 C329      13.222692    -1.982712     6.107430 C    1 RES 0.0000
   330 C330      13.222692    12.733288     6.107430 C    1 RES 0.0000
   331 C331      -1.496149    -2.125917     7.507440 C    1 RES 0.0000
   332 C332      -1.496149    12.590083     7.507440 C    1 RES 0.0000
   333 C333      13.219851    -2.125917     7.507440 C    1 RES 0.0000
   334 C334      13.219851    12.590083     7.507440 C    1 RES 0.0000
   335 C335      -1.551909    -1.030143     8.327634 C    1 RES 0.0000
   336 C336      -1.551909    13.685857     8.327634 C    1 RES 0.0000
   337 C337      13.164091    -1.030143     8.327634 C    1 RES 0.0000
   338 C338      13.164091    13.685857     8.327634 C    1 RES 0.0000
   339 C339      -1.626411    -1.257087     9.793745 C    1 RES 0.0000
   340 C340      -1.626411    13.458913     9.793745 C    1 RES 0.0000
   341 C341      13.089589    -1.257087     9.793745 C    1 RES 0.0000
   342 C342      13.089589    13.458913     9.793745 C    1 RES 0.0000
   343 C343      -1.560015     0.272787     7.792896 C    1 RES 0.0000
   344 C344      -1.560015    14.988787     7.792896 C    1 RES 0.0000
   345 C345      13.155985     0.272787     7.792896 C    1 RES 0.0000
   346 C346      13.155985    14.988787     7.792896 C    1 RES 0.0000
   347 C347      -1.467392     0.446228     6.439995 C    1 RES 0.0000
   348 C348      -1.467392    15.162228     6.439995 C    1 RES 0.0000
   349 C349      13.248608     0.446228     6.439995 C    1 RES 0.0000
   350 C350      13.248608    15.162228     6.439995 C    1 RES 0.0000
   351 C351      -1.446996    -0.666633     5.563972 C    1 RES 0.0000
   352 C352      -1.446996    14.049367     5.563972 C    1 RES 0.0000
   353 C353      13.269004    -0.666633     5.563972 C    1 RES 0.0000
   354 C354      13.269004    14.049367     5.563972 C    1 RES 0.0000
   355 C355      -1.426083    -0.524817     4.162095 C    1 RES 0.0000
   356 C356      -1.426083    14.191183     4.162095 C    1 RES 0.0000
   357 C357      13.289917    -0.524817     4.162095 C    1 RES 0.0000
   358 C358      13.289917    14.191183     4.162095 C    1 RES 0.0000
   359 O359       7.392708     7.309373     7.414614 O    1 RES 0.0000
   360 O360      10.246020     6.623047     6.728089 O    1 RES 0.0000
   361 O361      10.147042     8.124390     8.375073 O    1 RES 0.0000
   362 O362       4.459359     8.019564     6.810386 O    1 RES 0.0000
   363 O363       4.582541     6.242681     8.148066 O    1 RES 0.0000
   364 O364       6.416449    10.093821     6.682167 O    1 RES 0.0000
   365 O365       8.101062    10.188762     8.145035 O    1 RES 0.0000
   366 O366       8.412032     4.503473     6.569235 O    1 RES 0.0000
   367 O367       6.702137     4.374600     7.993109 O    1 RES 0.0000
   368 O368       6.771972     6.255621    10.170846 O    1 RES 0.0000
   369 O369       7.895103     8.175598    10.328201 O    1 RES 0.0000
   370 O370       6.446684     8.009667     4.623324 O    1 RES 0.0000
   371 O371       8.154757     6.577621     4.555373 O    1 RES 0.0000
   372 O372      -1.501272    -1.390620    -1.538577 O    1 RES 0.0000
   373 O373      -1.501272    -1.390620    13.177423 O    1 RES 0.0000
   374 O374      -1.501272    13.325380    -1.538577 O    1 RES 0.0000
   375 O375      -1.501272    13.325380    13.177423 O    1 RES 0.0000
   376 O376      13.214728    -1.390620    -1.538577 O    1 RES 0.0000
   377 O377      13.214728    -1.390620    13.177423 O    1 RES 0.0000
   378 O378      13.214728    13.325380    -1.538577 O    1 RES 0.0000
   379 O379      13.214728    13.325380    13.177423 O    1 RES 0.0000
   380 O380       1.339411    -1.975973    -2.327948 O    1 RES 0.0000
   381 O381       1.339411    -1.975973    12.388052 O    1 RES 0.0000
   382 O382       1.339411    12.740027    -2.327948 O    1 RES 0.0000
   383 O383       1.339411    12.740027    12.388052 O    1 RES 0.0000
   384 O384      16.055411    -1.975973    -2.327948 O    1 RES 0.0000
   385 O385      16.055411    -1.975973    12.388052 O    1 RES 0.0000
   386 O386      16.055411    12.740027    -2.327948 O    1 RES 0.0000
   387 O387      16.055411    12.740027    12.388052 O    1 RES 0.0000
   388 O388       1.254131    -0.570724    -0.596780 O    1 RES 0.0000
   389 O389       1.254131    -0.570724    14.119220 O    1 RES 0.0000
   390 O390       1.254131    14.145276    -0.596780 O    1 RES 0.0000
   391 O391       1.254131    14.145276    14.119220 O    1 RES 0.0000
   392 O392      15.970131    -0.570724    -0.596780 O    1 RES 0.0000
   393 O393      15.970131    -0.570724    14.119220 O    1 RES 0.0000
   394 O394      15.970131    14.145276    -0.596780 O    1 RES 0.0000
   395 O395      15.970131    14.145276    14.119220 O    1 RES 0.0000
   396 O396      10.303698    -0.510007    -2.032153 O    1 RES 0.0000
   397 O397      10.303698    -0.510007    12.683847 O    1 RES 0.0000
   398 O398      10.303698    14.205993    -2.032153 O    1 RES 0.0000
   399 O399      10.303698    14.205993    12.683847 O    1 RES 0.0000
   400 O400      10.371751    -2.364132    -0.800181 O    1 RES 0.0000
   401 O401      10.371751    -2.364132    13.915819 O    1 RES 0.0000
   402 O402      10.371751    12.351868    -0.800181 O    1 RES 0.0000
   403 O403      10.371751    12.351868    13.915819 O    1 RES 0.0000
   404 O404      -2.397280     1.424058    -2.308982 O    1 RES 0.0000
   405 O405      -2.397280     1.424058    12.407018 O    1 RES 0.0000
   406 O406      -2.397280    16.140058    -2.308982 O    1 RES 0.0000
   407 O407      -2.397280    16.140058    12.407018 O    1 RES 0.0000
   408 O408      12.318720     1.424058    -2.308982 O    1 RES 0.0000
   409 O409      12.318720     1.424058    12.407018 O    1 RES 0.0000
   410 O410      12.318720    16.140058    -2.308982 O    1 RES 0.0000
   411 O411      12.318720    16.140058    12.407018 O    1 RES 0.0000
   412 O412      -0.757907     1.488417    -0.797158 O    1 RES 0.0000
   413 O413      -0.757907     1.488417    13.918842 O    1 RES 0.0000
   414 O414      -0.757907    16.204417    -0.797158 O    1 RES 0.0000
   415 O415      -0.757907    16.204417    13.918842 O    1 RES 0.0000
   416 O416      13.958093     1.488417    -0.797158 O    1 RES 0.0000
   417 O417      13.958093     1.488417    13.918842 O    1 RES 0.0000
   418 O418      13.958093    16.204417    -0.797158 O    1 RES 0.0000
   419 O419      13.958093    16.204417    13.918842 O    1 RES 0.0000
   420 O420      -0.467160    10.517609    -2.361946 O    1 RES 0.0000
   421 O421      -0.467160    10.517609    12.354054 O    1 RES 0.0000
   422 O422      14.248840    10.517609    -2.361946 O    1 RES 0.0000
   423 O423      14.248840    10.517609    12.354054 O    1 RES 0.0000
   424 O424      -2.228699    10.412622    -0.998462 O    1 RES 0.0000
   425 O425      -2.228699    10.412622    13.717538 O    1 RES 0.0000
   426 O426      12.487301    10.412622    -0.998462 O    1 RES 0.0000
   427 O427      12.487301    10.412622    13.717538 O    1 RES 0.0000
   428 O428      -2.152669    -2.388789     1.219994 O    1 RES 0.0000
   429 O429      -2.152669    -2.388789    15.935994 O    1 RES 0.0000
   430 O430      -2.152669    12.327211     1.219994 O    1 RES 0.0000
   431 O431      -2.152669    12.327211    15.935994 O    1 RES 0.0000
   432 O432      12.563331    -2.388789     1.219994 O    1 RES 0.0000
   433 O433      12.563331    -2.388789    15.935994 O    1 RES 0.0000
   434 O434      12.563331    12.327211     1.219994 O    1 RES 0.0000
   435 O435      12.563331    12.327211    15.935994 O    1 RES 0.0000
   436 O436      -1.041818    -0.462643     1.369024 O    1 RES 0.0000
   437 O437      -1.041818    -0.462643    16.085024 O    1 RES 0.0000
   438 O438      -1.041818    14.253357     1.369024 O    1 RES 0.0000
   439 O439      -1.041818    14.253357    16.085024 O    1 RES 0.0000
   440 O440      13.674182    -0.462643     1.369024 O    1 RES 0.0000
   441 O441      13.674182    -0.462643    16.085024 O    1 RES 0.0000
   442 O442      13.674182    14.253357     1.369024 O    1 RES 0.0000
   443 O443      13.674182    14.253357    16.085024 O    1 RES 0.0000
   444 O444      -2.520430    -0.639368    10.421717 O    1 RES 0.0000
   445 O445      -2.520430    14.076632    10.421717 O    1 RES 0.0000
   446 O446      12.195570    -0.639368    10.421717 O    1 RES 0.0000
   447 O447      12.195570    14.076632    10.421717 O    1 RES 0.0000
   448 O448      -0.813453    -2.072776    10.293463 O    1 RES 0.0000
   449 O449      -0.813453    12.643224    10.293463 O    1 RES 0.0000
   450 O450      13.902547    -2.072776    10.293463 O    1 RES 0.0000
   451 O451      13.902547    12.643224    10.293463 O    1 RES 0.0000
@<TRIPOS>BOND
     1      1    359 1
     2      1    360 1
     3      1    366 1
     4      1    371 1
     5      2    359 1
     6      2    362 1
     7      2    364 1
     8      2    370 1
     9      3    359 1
    10      3    363 1
    11      3    367 1
    12      3    368 1
    13      4    359 1
    14      4    361 1
    15      4    365 1
    16      4    369 1
    17      5    372 1
    18      5    380 1
    19      6    373 1
    20      6    381 1
    21      6    448 1
    22      7    374 1
    23      7    382 1
    24      7    420 1
    25      8    375 1
    26      8    383 1
    27      8    421 1
    28      8    449 1
    29      9    376 1
    30      9    384 1
    31     10    377 1
    32     10    385 1
    33     10    450 1
    34     11    378 1
    35     11    386 1
    36     11    422 1
    37     12    379 1
    38     12    387 1
    39     12    423 1
    40     12    451 1
    41     13    372 1
    42     13    404 1
    43     14    373 1
    44     14    405 1
    45     14    444 1
    46     15    374 1
    47     15    406 1
    48     16    375 1
    49     16    407 1
    50     16    445 1
    51     17    376 1
    52     17    396 1
    53     17    408 1
    54     18    377 1
    55     18    397 1
    56     18    409 1
    57     18    446 1
    58     19    378 1
    59     19    398 1
    60     19    410 1
    61     20    379 1
    62     20    399 1
    63     20    411 1
    64     20    447 1
    65     21    372 1
    66     21    428 1
    67     22    373 1
    68     22    429 1
    69     23    374 1
    70     23    424 1
    71     23    430 1
    72     24    375 1
    73     24    425 1
    74     24    431 1
    75     25    376 1
    76     25    400 1
    77     25    432 1
    78     26    377 1
    79     26    401 1
    80     26    433 1
    81     27    378 1
    82     27    402 1
    83     27    426 1
    84     27    434 1
    85     28    379 1
    86     28    403 1
    87     28    427 1
    88     28    435 1
    89     29    372 1
    90     29    388 1
    91     29    412 1
    92     29    436 1
    93     30    373 1
    94     30    389 1
    95     30    413 1
    96     30    437 1
    97     31    374 1
    98     31    390 1
    99     31    414 1
   100     31    438 1
   101     32    375 1
   102     32    391 1
   103     32    415 1
   104     32    439 1
   105     33    376 1
   106     33    392 1
   107     33    416 1
   108     33    440 1
   109     34    377 1
   110     34    393 1
   111     34    417 1
   112     34    441 1
   113     35    378 1
   114     35    394 1
   115     35    418 1
   116     35    442 1
   117     36    379 1
   118     36    395 1
   119     36    419 1
   120     36    443 1
   121     37    142 1
   122     38    143 1
   123     39    144 1
   124     40    145 1
   125     41    148 1
   126     42    149 1
   127     43    153 1
   128     44    154 1
   129     45    155 1
   130     46    156 1
   131     47    159 1
   132     48    160 1
   133     49    164 1
   134     50    165 1
   135     51    166 1
   136     52    167 1
   137     53    170 1
   138     54    171 1
   139     55    175 1
   140     56    176 1
   141     57    177 1
   142     58    178 1
   143     59    181 1
   144     60    182 1
   145     61    186 1
   146     62    187 1
   147     63    188 1
   148     64    189 1
   149     65    192 1
   150     66    193 1
   151     67    197 1
   152     68    198 1
   153     69    199 1
   154     70    200 1
   155     71    203 1
   156     72    204 1
   157     73    217 1
   158     74    218 1
   159     75    219 1
   160     76    220 1
   161     81    221 1
   162     82    222 1
   163     83    223 1
   164     84    224 1
   165     85    229 1
   166     86    230 1
   167     87    231 1
   168     88    232 1
   169     89    243 1
   170     90    244 1
   171     91    247 1
   172     92    248 1
   173     93    253 1
   174     94    254 1
   175     95    255 1
   176     96    256 1
   177     97    271 1
   178     98    272 1
   179     99    273 1
   180    100    274 1
   181    101    279 1
   182    102    280 1
   183    103    281 1
   184    104    282 1
   185    105    291 1
   186    106    292 1
   187    107    293 1
   188    108    294 1
   189    109    295 1
   190    110    296 1
   191    111    297 1
   192    112    298 1
   193    113    303 1
   194    114    304 1
   195    115    305 1
   196    116    306 1
   197    117    320 1
   198    119    322 1
   199    121    324 1
   200    122    326 1
   201    123    331 1
   202    124    332 1
   203    125    333 1
   204    126    334 1
   205    127    343 1
   206    128    344 1
   207    129    345 1
   208    130    346 1
   209    131    347 1
   210    132    348 1
   211    133    349 1
   212    134    350 1
   213    135    355 1
   214    136    356 1
   215    137    357 1
   216    138    358 1
   217    139    141 1
   218    139    360 1
   219    139    361 1
   220    140    142 1
   221    140    159 1
   222    141    143 1
   223    141    160 1
   224    142    144 1
   225    143    145 1
   226    144    146 1
   227    145    147 1
   228    146    148 1
   229    146    157 1
   230    147    149 1
   231    147    158 1
   232    148    150 1
   233    149    151 1
   234    150    152 1
   235    150    153 1
   236    151    154 1
   237    152    362 1
   238    152    363 1
   239    153    155 1
   240    154    156 1
   241    155    157 1
   242    156    158 1
   243    157    159 1
   244    158    160 1
   245    161    163 1
   246    161    364 1
   247    161    365 1
   248    162    164 1
   249    162    181 1
   250    163    165 1
   251    163    182 1
   252    164    166 1
   253    165    167 1
   254    166    168 1
   255    167    169 1
   256    168    170 1
   257    168    179 1
   258    169    171 1
   259    169    180 1
   260    170    172 1
   261    171    173 1
   262    172    174 1
   263    172    175 1
   264    173    176 1
   265    174    366 1
   266    174    367 1
   267    175    177 1
   268    176    178 1
   269    177    179 1
   270    178    180 1
   271    179    181 1
   272    180    182 1
   273    183    185 1
   274    183    368 1
   275    183    369 1
   276    184    186 1
   277    184    203 1
   278    185    187 1
   279    185    204 1
   280    186    188 1
   281    187    189 1
   282    188    190 1
   283    189    191 1
   284    190    192 1
   285    190    201 1
   286    191    193 1
   287    191    202 1
   288    192    194 1
   289    193    195 1
   290    194    196 1
   291    194    197 1
   292    195    198 1
   293    196    370 1
   294    196    371 1
   295    197    199 1
   296    198    200 1
   297    199    201 1
   298    200    202 1
   299    201    203 1
   300    202    204 1
   301    205    213 1
   302    205    380 1
   303    205    388 1
   304    206    214 1
   305    206    381 1
   306    206    389 1
   307    207    215 1
   308    207    382 1
   309    207    390 1
   310    208    216 1
   311    208    383 1
   312    208    391 1
   313    209    384 1
   314    209    392 1
   315    210    385 1
   316    210    393 1
   317    211    386 1
   318    211    394 1
   319    212    387 1
   320    212    395 1
   321    213    217 1
   322    213    253 1
   323    214    218 1
   324    214    254 1
   325    215    219 1
   326    215    255 1
   327    216    220 1
   328    216    256 1
   329    217    221 1
   330    218    222 1
   331    219    223 1
   332    220    224 1
   333    221    225 1
   334    222    226 1
   335    223    227 1
   336    224    228 1
   337    225    229 1
   338    225    249 1
   339    226    230 1
   340    226    250 1
   341    227    231 1
   342    227    251 1
   343    228    232 1
   344    228    252 1
   345    229    233 1
   346    230    234 1
   347    231    235 1
   348    232    236 1
   349    233    237 1
   350    233    241 1
   351    234    238 1
   352    234    242 1
   353    235    239 1
   354    235    243 1
   355    236    240 1
   356    236    244 1
   357    237    396 1
   358    237    400 1
   359    238    397 1
   360    238    401 1
   361    239    398 1
   362    239    402 1
   363    240    399 1
   364    240    403 1
   365    241    245 1
   366    242    246 1
   367    243    247 1
   368    244    248 1
   369    245    249 1
   370    246    250 1
   371    247    251 1
   372    248    252 1
   373    249    253 1
   374    250    254 1
   375    251    255 1
   376    252    256 1
   377    257    265 1
   378    257    404 1
   379    257    412 1
   380    258    266 1
   381    258    405 1
   382    258    413 1
   383    259    406 1
   384    259    414 1
   385    260    407 1
   386    260    415 1
   387    261    267 1
   388    261    408 1
   389    261    416 1
   390    262    268 1
   391    262    409 1
   392    262    417 1
   393    263    410 1
   394    263    418 1
   395    264    411 1
   396    264    419 1
   397    265    269 1
   398    265    303 1
   399    266    270 1
   400    266    304 1
   401    267    271 1
   402    267    305 1
   403    268    272 1
   404    268    306 1
   405    271    273 1
   406    272    274 1
   407    273    277 1
   408    274    278 1
   409    275    279 1
   410    275    299 1
   411    276    280 1
   412    276    300 1
   413    277    281 1
   414    277    301 1
   415    278    282 1
   416    278    302 1
   417    279    283 1
   418    280    284 1
   419    281    285 1
   420    282    286 1
   421    283    287 1
   422    283    291 1
   423    284    288 1
   424    284    292 1
   425    285    289 1
   426    285    293 1
   427    286    290 1
   428    286    294 1
   429    287    420 1
   430    287    424 1
   431    288    421 1
   432    288    425 1
   433    289    422 1
   434    289    426 1
   435    290    423 1
   436    290    427 1
   437    291    295 1
   438    292    296 1
   439    293    297 1
   440    294    298 1
   441    295    299 1
   442    296    300 1
   443    297    301 1
   444    298    302 1
   445    299    303 1
   446    300    304 1
   447    301    305 1
   448    302    306 1
   449    307    315 1
   450    307    428 1
   451    307    436 1
   452    308    429 1
   453    308    437 1
   454    309    316 1
   455    309    430 1
   456    309    438 1
   457    310    431 1
   458    310    439 1
   459    311    317 1
   460    311    432 1
   461    311    440 1
   462    312    433 1
   463    312    441 1
   464    313    318 1
   465    313    434 1
   466    313    442 1
   467    314    435 1
   468    314    443 1
   469    315    319 1
   470    315    355 1
   471    316    320 1
   472    316    356 1
   473    317    321 1
   474    317    357 1
   475    318    322 1
   476    318    358 1
   477    319    323 1
   478    320    324 1
   479    321    325 1
   480    322    326 1
   481    323    327 1
   482    324    328 1
   483    325    329 1
   484    326    330 1
   485    327    331 1
   486    327    351 1
   487    328    332 1
   488    328    352 1
   489    329    333 1
   490    329    353 1
   491    330    334 1
   492    330    354 1
   493    331    335 1
   494    332    336 1
   495    333    337 1
   496    334    338 1
   497    335    339 1
   498    335    343 1
   499    336    340 1
   500    336    344 1
   501    337    341 1
   502    337    345 1
   503    338    342 1
   504    338    346 1
   505    339    444 1
   506    339    448 1
   507    340    445 1
   508    340    449 1
   509    341    446 1
   510    341    450 1
   511    342    447 1
   512    342    451 1
   513    343    347 1
   514    344    348 1
   515    345    349 1
   516    346    350 1
   517    347    351 1
   518    348    352 1
   519    349    353 1
   520    350    354 1
   521    351    355 1
   522    352    356 1
   523    353    357 1
   524    354    358 1
