ndc_zn4o_pcu_ip2_off380
AtomForge visual export

441516  0  0  0  0            999 V2000
    8.4899    6.2544    6.3578 Zn  0  0  0  0  0  0  0  0  0  0  0  0
    6.2284    8.2374    6.4400 Zn  0  0  0  0  0  0  0  0  0  0  0  0
    6.3834    6.0379    8.3787 Zn  0  0  0  0  0  0  0  0  0  0  0  0
    8.3145    8.2833    8.5344 Zn  0  0  0  0  0  0  0  0  0  0  0  0
   -0.7444   -2.5764   -2.9498 Zn  0  0  0  0  0  0  0  0  0  0  0  0
   -0.7444   -2.5764   11.7662 Zn  0  0  0  0  0  0  0  0  0  0  0  0
   -0.7444   12.1396   -2.9498 Zn  0  0  0  0  0  0  0  0  0  0  0  0
   -0.7444   12.1396   11.7662 Zn  0  0  0  0  0  0  0  0  0  0  0  0
   13.9716   -2.5764   -2.9498 Zn  0  0  0  0  0  0  0  0  0  0  0  0
   13.9716   -2.5764   11.7662 Zn  0  0  0  0  0  0  0  0  0  0  0  0
   13.9716   12.1396   -2.9498 Zn  0  0  0  0  0  0  0  0  0  0  0  0
   13.9716   12.1396   11.7662 Zn  0  0  0  0  0  0  0  0  0  0  0  0
   -2.9617   -0.5592   -2.8111 Zn  0  0  0  0  0  0  0  0  0  0  0  0
   -2.9617   -0.5592   11.9049 Zn  0  0  0  0  0  0  0  0  0  0  0  0
   -2.9617   14.1568   -2.8111 Zn  0  0  0  0  0  0  0  0  0  0  0  0
   -2.9617   14.1568   11.9049 Zn  0  0  0  0  0  0  0  0  0  0  0  0
   11.7543   -0.5592   -2.8111 Zn  0  0  0  0  0  0  0  0  0  0  0  0
   11.7543   -0.5592   11.9049 Zn  0  0  0  0  0  0  0  0  0  0  0  0
   11.7543   14.1568   -2.8111 Zn  0  0  0  0  0  0  0  0  0  0  0  0
   11.7543   14.1568   11.9049 Zn  0  0  0  0  0  0  0  0  0  0  0  0
   -2.8406   -2.7861   -0.9005 Zn  0  0  0  0  0  0  0  0  0  0  0  0
   -2.8406   -2.7861   13.8155 Zn  0  0  0  0  0  0  0  0  0  0  0  0
   -2.8406   11.9299   -0.9005 Zn  0  0  0  0  0  0  0  0  0  0  0  0
   -2.8406   11.9299   13.8155 Zn  0  0  0  0  0  0  0  0  0  0  0  0
   11.8754   -2.7861   -0.9005 Zn  0  0  0  0  0  0  0  0  0  0  0  0
   11.8754   -2.7861   13.8155 Zn  0  0  0  0  0  0  0  0  0  0  0  0
   11.8754   11.9299   -0.9005 Zn  0  0  0  0  0  0  0  0  0  0  0  0
   11.8754   11.9299   13.8155 Zn  0  0  0  0  0  0  0  0  0  0  0  0
   -0.8735   -0.5646   -0.7487 Zn  0  0  0  0  0  0  0  0  0  0  0  0
   -0.8735   -0.5646   13.9673 Zn  0  0  0  0  0  0  0  0  0  0  0  0
   -0.8735   14.1514   -0.7487 Zn  0  0  0  0  0  0  0  0  0  0  0  0
   -0.8735   14.1514   13.9673 Zn  0  0  0  0  0  0  0  0  0  0  0  0
   13.8425   -0.5646   -0.7487 Zn  0  0  0  0  0  0  0  0  0  0  0  0
   13.8425   -0.5646   13.9673 Zn  0  0  0  0  0  0  0  0  0  0  0  0
   13.8425   14.1514   -0.7487 Zn  0  0  0  0  0  0  0  0  0  0  0  0
   13.8425   14.1514   13.9673 Zn  0  0  0  0  0  0  0  0  0  0  0  0
   -2.6010    9.5332    7.9876 H   0  0  0  0  0  0  0  0  0  0  0  0
   12.1150    9.5332    7.9876 H   0  0  0  0  0  0  0  0  0  0  0  0
   -0.0973    9.8586    7.7008 H   0  0  0  0  0  0  0  0  0  0  0  0
   14.6187    9.8586    7.7008 H   0  0  0  0  0  0  0  0  0  0  0  0
    2.0961    8.8935    7.3621 H   0  0  0  0  0  0  0  0  0  0  0  0
   16.8121    8.8935    7.3621 H   0  0  0  0  0  0  0  0  0  0  0  0
    2.5708    4.6581    7.3081 H   0  0  0  0  0  0  0  0  0  0  0  0
   17.2868    4.6581    7.3081 H   0  0  0  0  0  0  0  0  0  0  0  0
    0.0922    4.3681    7.1711 H   0  0  0  0  0  0  0  0  0  0  0  0
   14.8082    4.3681    7.1711 H   0  0  0  0  0  0  0  0  0  0  0  0
   -2.1831    5.3852    7.2224 H   0  0  0  0  0  0  0  0  0  0  0  0
   12.5329    5.3852    7.2224 H   0  0  0  0  0  0  0  0  0  0  0  0
    4.9494   -2.6917    7.3618 H   0  0  0  0  0  0  0  0  0  0  0  0
    4.9494   12.0243    7.3618 H   0  0  0  0  0  0  0  0  0  0  0  0
    4.6822   -0.2178    7.4054 H   0  0  0  0  0  0  0  0  0  0  0  0
    4.6822   14.4982    7.4054 H   0  0  0  0  0  0  0  0  0  0  0  0
    5.7073    2.0224    7.4528 H   0  0  0  0  0  0  0  0  0  0  0  0
    5.7073   16.7384    7.4528 H   0  0  0  0  0  0  0  0  0  0  0  0
    9.9290    2.4157    7.1952 H   0  0  0  0  0  0  0  0  0  0  0  0
    9.9290   17.1317    7.1952 H   0  0  0  0  0  0  0  0  0  0  0  0
   10.2113   -0.0437    7.5108 H   0  0  0  0  0  0  0  0  0  0  0  0
   10.2113   14.6723    7.5108 H   0  0  0  0  0  0  0  0  0  0  0  0
    9.1718   -2.2854    7.7772 H   0  0  0  0  0  0  0  0  0  0  0  0
    9.1718   12.4306    7.7772 H   0  0  0  0  0  0  0  0  0  0  0  0
    7.3402    4.6381   -2.5132 H   0  0  0  0  0  0  0  0  0  0  0  0
    7.3402    4.6381   12.2028 H   0  0  0  0  0  0  0  0  0  0  0  0
    7.4417    4.3540   -0.0354 H   0  0  0  0  0  0  0  0  0  0  0  0
    7.4417    4.3540   14.6806 H   0  0  0  0  0  0  0  0  0  0  0  0
    7.5435    5.3840    2.2406 H   0  0  0  0  0  0  0  0  0  0  0  0
    7.5435    5.3840   16.9566 H   0  0  0  0  0  0  0  0  0  0  0  0
    7.3136    9.6254    2.6060 H   0  0  0  0  0  0  0  0  0  0  0  0
    7.3136    9.6254   17.3220 H   0  0  0  0  0  0  0  0  0  0  0  0
    7.5872    9.8761    0.1431 H   0  0  0  0  0  0  0  0  0  0  0  0
    7.5872    9.8761   14.8591 H   0  0  0  0  0  0  0  0  0  0  0  0
    7.7238    8.8449   -2.0816 H   0  0  0  0  0  0  0  0  0  0  0  0
    7.7238    8.8449   12.6344 H   0  0  0  0  0  0  0  0  0  0  0  0
    2.8568    0.8589   -1.5994 H   0  0  0  0  0  0  0  0  0  0  0  0
    2.8568    0.8589   13.1166 H   0  0  0  0  0  0  0  0  0  0  0  0
    2.8568   15.5749   -1.5994 H   0  0  0  0  0  0  0  0  0  0  0  0
    2.8568   15.5749   13.1166 H   0  0  0  0  0  0  0  0  0  0  0  0
    5.3207    1.2337   -1.8095 H   0  0  0  0  0  0  0  0  0  0  0  0
    5.3207    1.2337   12.9065 H   0  0  0  0  0  0  0  0  0  0  0  0
    5.3207   15.9497   -1.8095 H   0  0  0  0  0  0  0  0  0  0  0  0
    5.3207   15.9497   12.9065 H   0  0  0  0  0  0  0  0  0  0  0  0
    7.6022    0.2852   -1.8690 H   0  0  0  0  0  0  0  0  0  0  0  0
    7.6022    0.2852   12.8470 H   0  0  0  0  0  0  0  0  0  0  0  0
    7.6022   15.0012   -1.8690 H   0  0  0  0  0  0  0  0  0  0  0  0
    7.6022   15.0012   12.8470 H   0  0  0  0  0  0  0  0  0  0  0  0
    8.1658   10.8027   -2.0296 H   0  0  0  0  0  0  0  0  0  0  0  0
    8.1658   10.8027   12.6864 H   0  0  0  0  0  0  0  0  0  0  0  0
    5.6688   10.4521   -2.2354 H   0  0  0  0  0  0  0  0  0  0  0  0
    5.6688   10.4521   12.4806 H   0  0  0  0  0  0  0  0  0  0  0  0
    3.4083   11.3936   -2.1494 H   0  0  0  0  0  0  0  0  0  0  0  0
    3.4083   11.3936   12.5666 H   0  0  0  0  0  0  0  0  0  0  0  0
   10.5156    3.1382   -1.8651 H   0  0  0  0  0  0  0  0  0  0  0  0
   10.5156    3.1382   12.8509 H   0  0  0  0  0  0  0  0  0  0  0  0
   10.1931    5.6124   -1.7980 H   0  0  0  0  0  0  0  0  0  0  0  0
   10.1931    5.6124   12.9180 H   0  0  0  0  0  0  0  0  0  0  0  0
   11.1795    7.8663   -1.8016 H   0  0  0  0  0  0  0  0  0  0  0  0
   11.1795    7.8663   12.9144 H   0  0  0  0  0  0  0  0  0  0  0  0
    0.6887    8.3261   -2.0550 H   0  0  0  0  0  0  0  0  0  0  0  0
    0.6887    8.3261   12.6610 H   0  0  0  0  0  0  0  0  0  0  0  0
   15.4047    8.3261   -2.0550 H   0  0  0  0  0  0  0  0  0  0  0  0
   15.4047    8.3261   12.6610 H   0  0  0  0  0  0  0  0  0  0  0  0
    1.0049    5.8791   -1.7318 H   0  0  0  0  0  0  0  0  0  0  0  0
    1.0049    5.8791   12.9842 H   0  0  0  0  0  0  0  0  0  0  0  0
   15.7209    5.8791   -1.7318 H   0  0  0  0  0  0  0  0  0  0  0  0
   15.7209    5.8791   12.9842 H   0  0  0  0  0  0  0  0  0  0  0  0
    0.0052    3.6178   -1.4562 H   0  0  0  0  0  0  0  0  0  0  0  0
    0.0052    3.6178   13.2598 H   0  0  0  0  0  0  0  0  0  0  0  0
   14.7212    3.6178   -1.4562 H   0  0  0  0  0  0  0  0  0  0  0  0
   14.7212    3.6178   13.2598 H   0  0  0  0  0  0  0  0  0  0  0  0
   -1.9945   10.6755    2.9719 H   0  0  0  0  0  0  0  0  0  0  0  0
   12.7215   10.6755    2.9719 H   0  0  0  0  0  0  0  0  0  0  0  0
   -1.8553   10.4260    5.4493 H   0  0  0  0  0  0  0  0  0  0  0  0
   12.8607   10.4260    5.4493 H   0  0  0  0  0  0  0  0  0  0  0  0
   -1.7025   11.4525    7.6641 H   0  0  0  0  0  0  0  0  0  0  0  0
   13.0135   11.4525    7.6641 H   0  0  0  0  0  0  0  0  0  0  0  0
   -1.9034    0.9597    8.0867 H   0  0  0  0  0  0  0  0  0  0  0  0
   -1.9034   15.6757    8.0867 H   0  0  0  0  0  0  0  0  0  0  0  0
   12.8126    0.9597    8.0867 H   0  0  0  0  0  0  0  0  0  0  0  0
   12.8126   15.6757    8.0867 H   0  0  0  0  0  0  0  0  0  0  0  0
   -1.7683    1.2305    5.6113 H   0  0  0  0  0  0  0  0  0  0  0  0
   -1.7683   15.9465    5.6113 H   0  0  0  0  0  0  0  0  0  0  0  0
   12.9477    1.2305    5.6113 H   0  0  0  0  0  0  0  0  0  0  0  0
   12.9477   15.9465    5.6113 H   0  0  0  0  0  0  0  0  0  0  0  0
   -1.6995    0.1957    3.3375 H   0  0  0  0  0  0  0  0  0  0  0  0
   -1.6995   14.9117    3.3375 H   0  0  0  0  0  0  0  0  0  0  0  0
   13.0165    0.1957    3.3375 H   0  0  0  0  0  0  0  0  0  0  0  0
   13.0165   14.9117    3.3375 H   0  0  0  0  0  0  0  0  0  0  0  0
   10.7655    7.3270    7.5950 C   0  0  0  0  0  0  0  0  0  0  0  0
   -2.4795    7.4520    7.5829 C   0  0  0  0  0  0  0  0  0  0  0  0
   12.2365    7.4520    7.5829 C   0  0  0  0  0  0  0  0  0  0  0  0
   -1.9178    8.7294    7.7597 C   0  0  0  0  0  0  0  0  0  0  0  0
   12.7982    8.7294    7.7597 C   0  0  0  0  0  0  0  0  0  0  0  0
   -0.5713    8.8926    7.6201 C   0  0  0  0  0  0  0  0  0  0  0  0
   14.1447    8.8926    7.6201 C   0  0  0  0  0  0  0  0  0  0  0  0
    0.2581    7.7706    7.4124 C   0  0  0  0  0  0  0  0  0  0  0  0
   14.9741    7.7706    7.4124 C   0  0  0  0  0  0  0  0  0  0  0  0
    1.6548    7.9090    7.3527 C   0  0  0  0  0  0  0  0  0  0  0  0
   16.3708    7.9090    7.3527 C   0  0  0  0  0  0  0  0  0  0  0  0
    2.4535    6.7948    7.3491 C   0  0  0  0  0  0  0  0  0  0  0  0
   17.1695    6.7948    7.3491 C   0  0  0  0  0  0  0  0  0  0  0  0
    3.9251    6.9697    7.4364 C   0  0  0  0  0  0  0  0  0  0  0  0
    1.8966    5.5003    7.3071 C   0  0  0  0  0  0  0  0  0  0  0  0
   16.6126    5.5003    7.3071 C   0  0  0  0  0  0  0  0  0  0  0  0
    0.5419    5.3469    7.2445 C   0  0  0  0  0  0  0  0  0  0  0  0
   15.2579    5.3469    7.2445 C   0  0  0  0  0  0  0  0  0  0  0  0
   -0.3090    6.4704    7.3233 C   0  0  0  0  0  0  0  0  0  0  0  0
   14.4070    6.4704    7.3233 C   0  0  0  0  0  0  0  0  0  0  0  0
   -1.7079    6.3455    7.3490 C   0  0  0  0  0  0  0  0  0  0  0  0
   13.0081    6.3455    7.3490 C   0  0  0  0  0  0  0  0  0  0  0  0
    7.2083   10.6365    7.5506 C   0  0  0  0  0  0  0  0  0  0  0  0
    7.0804   -2.6054    7.5890 C   0  0  0  0  0  0  0  0  0  0  0  0
    7.0804   12.1106    7.5890 C   0  0  0  0  0  0  0  0  0  0  0  0
    5.7972   -2.0345    7.4633 C   0  0  0  0  0  0  0  0  0  0  0  0
    5.7972   12.6815    7.4633 C   0  0  0  0  0  0  0  0  0  0  0  0
    5.6560   -0.6795    7.4767 C   0  0  0  0  0  0  0  0  0  0  0  0
    5.6560   14.0365    7.4767 C   0  0  0  0  0  0  0  0  0  0  0  0
    6.7943    0.1539    7.5235 C   0  0  0  0  0  0  0  0  0  0  0  0
    6.7943   14.8699    7.5235 C   0  0  0  0  0  0  0  0  0  0  0  0
    6.6775    1.5507    7.4571 C   0  0  0  0  0  0  0  0  0  0  0  0
    6.6775   16.2667    7.4571 C   0  0  0  0  0  0  0  0  0  0  0  0
    7.8003    2.3292    7.3485 C   0  0  0  0  0  0  0  0  0  0  0  0
    7.8003   17.0452    7.3485 C   0  0  0  0  0  0  0  0  0  0  0  0
    7.6385    3.7917    7.2250 C   0  0  0  0  0  0  0  0  0  0  0  0
    9.0867    1.7567    7.3285 C   0  0  0  0  0  0  0  0  0  0  0  0
    9.0867   16.4727    7.3285 C   0  0  0  0  0  0  0  0  0  0  0  0
    9.2318    0.4099    7.4890 C   0  0  0  0  0  0  0  0  0  0  0  0
    9.2318   15.1259    7.4890 C   0  0  0  0  0  0  0  0  0  0  0  0
    8.0942   -0.4226    7.5869 C   0  0  0  0  0  0  0  0  0  0  0  0
    8.0942   14.2934    7.5869 C   0  0  0  0  0  0  0  0  0  0  0  0
    8.2026   -1.8212    7.6807 C   0  0  0  0  0  0  0  0  0  0  0  0
    8.2026   12.8948    7.6807 C   0  0  0  0  0  0  0  0  0  0  0  0
    7.4263    6.9220   10.8268 C   0  0  0  0  0  0  0  0  0  0  0  0
    7.5191    6.7648   -2.4194 C   0  0  0  0  0  0  0  0  0  0  0  0
    7.5191    6.7648   12.2966 C   0  0  0  0  0  0  0  0  0  0  0  0
    7.4287    5.4799   -1.8465 C   0  0  0  0  0  0  0  0  0  0  0  0
    7.4287    5.4799   12.8695 C   0  0  0  0  0  0  0  0  0  0  0  0
    7.4756    5.3321   -0.4903 C   0  0  0  0  0  0  0  0  0  0  0  0
    7.4756    5.3321   14.2257 C   0  0  0  0  0  0  0  0  0  0  0  0
    7.5371    6.4602    0.3596 C   0  0  0  0  0  0  0  0  0  0  0  0
    7.5371    6.4602   15.0756 C   0  0  0  0  0  0  0  0  0  0  0  0
    7.5197    6.3522    1.7642 C   0  0  0  0  0  0  0  0  0  0  0  0
    7.5197    6.3522   16.4802 C   0  0  0  0  0  0  0  0  0  0  0  0
    7.4364    7.4833    2.5373 C   0  0  0  0  0  0  0  0  0  0  0  0
    7.4364    7.4833   17.2533 C   0  0  0  0  0  0  0  0  0  0  0  0
    7.3742    7.3721    4.0174 C   0  0  0  0  0  0  0  0  0  0  0  0
    7.4133    8.7677    1.9602 C   0  0  0  0  0  0  0  0  0  0  0  0
    7.4133    8.7677   16.6762 C   0  0  0  0  0  0  0  0  0  0  0  0
    7.5430    8.9027    0.6088 C   0  0  0  0  0  0  0  0  0  0  0  0
    7.5430    8.9027   15.3248 C   0  0  0  0  0  0  0  0  0  0  0  0
    7.5915    7.7591   -0.2196 C   0  0  0  0  0  0  0  0  0  0  0  0
    7.5915    7.7591   14.4964 C   0  0  0  0  0  0  0  0  0  0  0  0
    7.6350    7.8752   -1.6205 C   0  0  0  0  0  0  0  0  0  0  0  0
    7.6350    7.8752   13.0955 C   0  0  0  0  0  0  0  0  0  0  0  0
    1.5601   -1.4480   -1.8019 C   0  0  0  0  0  0  0  0  0  0  0  0
    1.5601   -1.4480   12.9141 C   0  0  0  0  0  0  0  0  0  0  0  0
    1.5601   13.2680   -1.8019 C   0  0  0  0  0  0  0  0  0  0  0  0
    1.5601   13.2680   12.9141 C   0  0  0  0  0  0  0  0  0  0  0  0
   16.2761   -1.4480   -1.8019 C   0  0  0  0  0  0  0  0  0  0  0  0
   16.2761   -1.4480   12.9141 C   0  0  0  0  0  0  0  0  0  0  0  0
   16.2761   13.2680   -1.8019 C   0  0  0  0  0  0  0  0  0  0  0  0
   16.2761   13.2680   12.9141 C   0  0  0  0  0  0  0  0  0  0  0  0
    3.0279   -1.2542   -1.8632 C   0  0  0  0  0  0  0  0  0  0  0  0
    3.0279   -1.2542   12.8528 C   0  0  0  0  0  0  0  0  0  0  0  0
    3.0279   13.4618   -1.8632 C   0  0  0  0  0  0  0  0  0  0  0  0
    3.0279   13.4618   12.8528 C   0  0  0  0  0  0  0  0  0  0  0  0
   17.7439   -1.2542   -1.8632 C   0  0  0  0  0  0  0  0  0  0  0  0
   17.7439   -1.2542   12.8528 C   0  0  0  0  0  0  0  0  0  0  0  0
   17.7439   13.4618   -1.8632 C   0  0  0  0  0  0  0  0  0  0  0  0
   17.7439   13.4618   12.8528 C   0  0  0  0  0  0  0  0  0  0  0  0
    3.5514    0.0475   -1.7481 C   0  0  0  0  0  0  0  0  0  0  0  0
    3.5514    0.0475   12.9679 C   0  0  0  0  0  0  0  0  0  0  0  0
    3.5514   14.7635   -1.7481 C   0  0  0  0  0  0  0  0  0  0  0  0
    3.5514   14.7635   12.9679 C   0  0  0  0  0  0  0  0  0  0  0  0
    4.8982    0.2413   -1.8432 C   0  0  0  0  0  0  0  0  0  0  0  0
    4.8982    0.2413   12.8728 C   0  0  0  0  0  0  0  0  0  0  0  0
    4.8982   14.9573   -1.8432 C   0  0  0  0  0  0  0  0  0  0  0  0
    4.8982   14.9573   12.8728 C   0  0  0  0  0  0  0  0  0  0  0  0
    5.7727   -0.8616   -1.9574 C   0  0  0  0  0  0  0  0  0  0  0  0
    5.7727   -0.8616   12.7586 C   0  0  0  0  0  0  0  0  0  0  0  0
    5.7727   13.8544   -1.9574 C   0  0  0  0  0  0  0  0  0  0  0  0
    5.7727   13.8544   12.7586 C   0  0  0  0  0  0  0  0  0  0  0  0
    7.1690   -0.7014   -1.9219 C   0  0  0  0  0  0  0  0  0  0  0  0
    7.1690   -0.7014   12.7941 C   0  0  0  0  0  0  0  0  0  0  0  0
    7.1690   14.0146   -1.9219 C   0  0  0  0  0  0  0  0  0  0  0  0
    7.1690   14.0146   12.7941 C   0  0  0  0  0  0  0  0  0  0  0  0
    7.9807   -1.8054   -1.8957 C   0  0  0  0  0  0  0  0  0  0  0  0
    7.9807   -1.8054   12.8203 C   0  0  0  0  0  0  0  0  0  0  0  0
    7.9807   12.9106   -1.8957 C   0  0  0  0  0  0  0  0  0  0  0  0
    7.9807   12.9106   12.8203 C   0  0  0  0  0  0  0  0  0  0  0  0
    9.4475   -1.6629   -1.7542 C   0  0  0  0  0  0  0  0  0  0  0  0
    9.4475   -1.6629   12.9618 C   0  0  0  0  0  0  0  0  0  0  0  0
    9.4475   13.0531   -1.7542 C   0  0  0  0  0  0  0  0  0  0  0  0
    9.4475   13.0531   12.9618 C   0  0  0  0  0  0  0  0  0  0  0  0
    7.4531   -3.1048   -2.0120 C   0  0  0  0  0  0  0  0  0  0  0  0
    7.4531   -3.1048   12.7040 C   0  0  0  0  0  0  0  0  0  0  0  0
    7.4531   11.6112   -2.0120 C   0  0  0  0  0  0  0  0  0  0  0  0
    7.4531   11.6112   12.7040 C   0  0  0  0  0  0  0  0  0  0  0  0
    6.1065   11.4324   -2.1229 C   0  0  0  0  0  0  0  0  0  0  0  0
    6.1065   11.4324   12.5931 C   0  0  0  0  0  0  0  0  0  0  0  0
    5.2367   -2.1750   -2.0540 C   0  0  0  0  0  0  0  0  0  0  0  0
    5.2367   -2.1750   12.6620 C   0  0  0  0  0  0  0  0  0  0  0  0
    5.2367   12.5410   -2.0540 C   0  0  0  0  0  0  0  0  0  0  0  0
    5.2367   12.5410   12.6620 C   0  0  0  0  0  0  0  0  0  0  0  0
    3.8416   -2.3394   -2.0503 C   0  0  0  0  0  0  0  0  0  0  0  0
    3.8416   -2.3394   12.6657 C   0  0  0  0  0  0  0  0  0  0  0  0
    3.8416   12.3766   -2.0503 C   0  0  0  0  0  0  0  0  0  0  0  0
    3.8416   12.3766   12.6657 C   0  0  0  0  0  0  0  0  0  0  0  0
   -1.9069    1.8084   -1.7679 C   0  0  0  0  0  0  0  0  0  0  0  0
   -1.9069    1.8084   12.9481 C   0  0  0  0  0  0  0  0  0  0  0  0
   -1.9069   16.5244   -1.7679 C   0  0  0  0  0  0  0  0  0  0  0  0
   -1.9069   16.5244   12.9481 C   0  0  0  0  0  0  0  0  0  0  0  0
   12.8091    1.8084   -1.7679 C   0  0  0  0  0  0  0  0  0  0  0  0
   12.8091    1.8084   12.9481 C   0  0  0  0  0  0  0  0  0  0  0  0
   12.8091   16.5244   -1.7679 C   0  0  0  0  0  0  0  0  0  0  0  0
   12.8091   16.5244   12.9481 C   0  0  0  0  0  0  0  0  0  0  0  0
   -2.0759    3.2717   -1.6531 C   0  0  0  0  0  0  0  0  0  0  0  0
   -2.0759    3.2717   13.0629 C   0  0  0  0  0  0  0  0  0  0  0  0
   12.6401    3.2717   -1.6531 C   0  0  0  0  0  0  0  0  0  0  0  0
   12.6401    3.2717   13.0629 C   0  0  0  0  0  0  0  0  0  0  0  0
   11.3454    3.8182   -1.7616 C   0  0  0  0  0  0  0  0  0  0  0  0
   11.3454    3.8182   12.9544 C   0  0  0  0  0  0  0  0  0  0  0  0
   11.1772    5.1703   -1.7373 C   0  0  0  0  0  0  0  0  0  0  0  0
   11.1772    5.1703   12.9787 C   0  0  0  0  0  0  0  0  0  0  0  0
   -2.4143    6.0248   -1.7037 C   0  0  0  0  0  0  0  0  0  0  0  0
   -2.4143    6.0248   13.0123 C   0  0  0  0  0  0  0  0  0  0  0  0
   12.3017    6.0248   -1.7037 C   0  0  0  0  0  0  0  0  0  0  0  0
   12.3017    6.0248   13.0123 C   0  0  0  0  0  0  0  0  0  0  0  0
   -2.5544    7.4197   -1.7892 C   0  0  0  0  0  0  0  0  0  0  0  0
   -2.5544    7.4197   12.9268 C   0  0  0  0  0  0  0  0  0  0  0  0
   12.1616    7.4197   -1.7892 C   0  0  0  0  0  0  0  0  0  0  0  0
   12.1616    7.4197   12.9268 C   0  0  0  0  0  0  0  0  0  0  0  0
   -1.4432    8.2159   -1.9083 C   0  0  0  0  0  0  0  0  0  0  0  0
   -1.4432    8.2159   12.8077 C   0  0  0  0  0  0  0  0  0  0  0  0
   13.2728    8.2159   -1.9083 C   0  0  0  0  0  0  0  0  0  0  0  0
   13.2728    8.2159   12.8077 C   0  0  0  0  0  0  0  0  0  0  0  0
   -1.6137    9.6793   -2.0473 C   0  0  0  0  0  0  0  0  0  0  0  0
   -1.6137    9.6793   12.6687 C   0  0  0  0  0  0  0  0  0  0  0  0
   13.1023    9.6793   -2.0473 C   0  0  0  0  0  0  0  0  0  0  0  0
   13.1023    9.6793   12.6687 C   0  0  0  0  0  0  0  0  0  0  0  0
   -0.1481    7.6608   -1.9191 C   0  0  0  0  0  0  0  0  0  0  0  0
   -0.1481    7.6608   12.7969 C   0  0  0  0  0  0  0  0  0  0  0  0
   14.5679    7.6608   -1.9191 C   0  0  0  0  0  0  0  0  0  0  0  0
   14.5679    7.6608   12.7969 C   0  0  0  0  0  0  0  0  0  0  0  0
    0.0179    6.3180   -1.7469 C   0  0  0  0  0  0  0  0  0  0  0  0
    0.0179    6.3180   12.9691 C   0  0  0  0  0  0  0  0  0  0  0  0
   14.7339    6.3180   -1.7469 C   0  0  0  0  0  0  0  0  0  0  0  0
   14.7339    6.3180   12.9691 C   0  0  0  0  0  0  0  0  0  0  0  0
   -1.1053    5.4687   -1.6391 C   0  0  0  0  0  0  0  0  0  0  0  0
   -1.1053    5.4687   13.0769 C   0  0  0  0  0  0  0  0  0  0  0  0
   13.6107    5.4687   -1.6391 C   0  0  0  0  0  0  0  0  0  0  0  0
   13.6107    5.4687   13.0769 C   0  0  0  0  0  0  0  0  0  0  0  0
   -0.9688    4.0725   -1.5482 C   0  0  0  0  0  0  0  0  0  0  0  0
   -0.9688    4.0725   13.1678 C   0  0  0  0  0  0  0  0  0  0  0  0
   13.7472    4.0725   -1.5482 C   0  0  0  0  0  0  0  0  0  0  0  0
   13.7472    4.0725   13.1678 C   0  0  0  0  0  0  0  0  0  0  0  0
   -1.8644   -1.8049    1.5529 C   0  0  0  0  0  0  0  0  0  0  0  0
   -1.8644   -1.8049   16.2689 C   0  0  0  0  0  0  0  0  0  0  0  0
   -1.8644   12.9111    1.5529 C   0  0  0  0  0  0  0  0  0  0  0  0
   -1.8644   12.9111   16.2689 C   0  0  0  0  0  0  0  0  0  0  0  0
   12.8516   -1.8049    1.5529 C   0  0  0  0  0  0  0  0  0  0  0  0
   12.8516   -1.8049   16.2689 C   0  0  0  0  0  0  0  0  0  0  0  0
   12.8516   12.9111    1.5529 C   0  0  0  0  0  0  0  0  0  0  0  0
   12.8516   12.9111   16.2689 C   0  0  0  0  0  0  0  0  0  0  0  0
   -1.8346   -1.9030    3.0344 C   0  0  0  0  0  0  0  0  0  0  0  0
   -1.8346   -1.9030   17.7504 C   0  0  0  0  0  0  0  0  0  0  0  0
   -1.8346   12.8130    3.0344 C   0  0  0  0  0  0  0  0  0  0  0  0
   -1.8346   12.8130   17.7504 C   0  0  0  0  0  0  0  0  0  0  0  0
   12.8814   -1.9030    3.0344 C   0  0  0  0  0  0  0  0  0  0  0  0
   12.8814   -1.9030   17.7504 C   0  0  0  0  0  0  0  0  0  0  0  0
   12.8814   12.8130    3.0344 C   0  0  0  0  0  0  0  0  0  0  0  0
   12.8814   12.8130   17.7504 C   0  0  0  0  0  0  0  0  0  0  0  0
   -1.9032   -3.1842    3.6203 C   0  0  0  0  0  0  0  0  0  0  0  0
   -1.9032   11.5318    3.6203 C   0  0  0  0  0  0  0  0  0  0  0  0
   12.8128   -3.1842    3.6203 C   0  0  0  0  0  0  0  0  0  0  0  0
   12.8128   11.5318    3.6203 C   0  0  0  0  0  0  0  0  0  0  0  0
   -1.8388   11.3975    4.9754 C   0  0  0  0  0  0  0  0  0  0  0  0
   12.8772   11.3975    4.9754 C   0  0  0  0  0  0  0  0  0  0  0  0
   -1.7710   -2.1756    5.8019 C   0  0  0  0  0  0  0  0  0  0  0  0
   -1.7710   12.5404    5.8019 C   0  0  0  0  0  0  0  0  0  0  0  0
   12.9450   -2.1756    5.8019 C   0  0  0  0  0  0  0  0  0  0  0  0
   12.9450   12.5404    5.8019 C   0  0  0  0  0  0  0  0  0  0  0  0
   -1.7411   -2.2913    7.2026 C   0  0  0  0  0  0  0  0  0  0  0  0
   -1.7411   12.4247    7.2026 C   0  0  0  0  0  0  0  0  0  0  0  0
   12.9749   -2.2913    7.2026 C   0  0  0  0  0  0  0  0  0  0  0  0
   12.9749   12.4247    7.2026 C   0  0  0  0  0  0  0  0  0  0  0  0
   -1.8027   -1.1763    7.9957 C   0  0  0  0  0  0  0  0  0  0  0  0
   -1.8027   13.5397    7.9957 C   0  0  0  0  0  0  0  0  0  0  0  0
   12.9133   -1.1763    7.9957 C   0  0  0  0  0  0  0  0  0  0  0  0
   12.9133   13.5397    7.9957 C   0  0  0  0  0  0  0  0  0  0  0  0
   -1.8870   -1.3710    9.4647 C   0  0  0  0  0  0  0  0  0  0  0  0
   -1.8870   13.3450    9.4647 C   0  0  0  0  0  0  0  0  0  0  0  0
   12.8290   -1.3710    9.4647 C   0  0  0  0  0  0  0  0  0  0  0  0
   12.8290   13.3450    9.4647 C   0  0  0  0  0  0  0  0  0  0  0  0
   -1.8421    0.1103    7.4255 C   0  0  0  0  0  0  0  0  0  0  0  0
   -1.8421   14.8263    7.4255 C   0  0  0  0  0  0  0  0  0  0  0  0
   12.8739    0.1103    7.4255 C   0  0  0  0  0  0  0  0  0  0  0  0
   12.8739   14.8263    7.4255 C   0  0  0  0  0  0  0  0  0  0  0  0
   -1.7803    0.2525    6.0675 C   0  0  0  0  0  0  0  0  0  0  0  0
   -1.7803   14.9685    6.0675 C   0  0  0  0  0  0  0  0  0  0  0  0
   12.9357    0.2525    6.0675 C   0  0  0  0  0  0  0  0  0  0  0  0
   12.9357   14.9685    6.0675 C   0  0  0  0  0  0  0  0  0  0  0  0
   -1.7596   -0.8782    5.2186 C   0  0  0  0  0  0  0  0  0  0  0  0
   -1.7596   13.8378    5.2186 C   0  0  0  0  0  0  0  0  0  0  0  0
   12.9564   -0.8782    5.2186 C   0  0  0  0  0  0  0  0  0  0  0  0
   12.9564   13.8378    5.2186 C   0  0  0  0  0  0  0  0  0  0  0  0
   -1.7505   -0.7720    3.8130 C   0  0  0  0  0  0  0  0  0  0  0  0
   -1.7505   13.9440    3.8130 C   0  0  0  0  0  0  0  0  0  0  0  0
   12.9655   -0.7720    3.8130 C   0  0  0  0  0  0  0  0  0  0  0  0
   12.9655   13.9440    3.8130 C   0  0  0  0  0  0  0  0  0  0  0  0
    7.3666    7.2162    7.4167 O   0  0  0  0  0  0  0  0  0  0  0  0
   10.2595    6.5905    6.7146 O   0  0  0  0  0  0  0  0  0  0  0  0
   10.1309    7.9820    8.4586 O   0  0  0  0  0  0  0  0  0  0  0  0
    4.4425    7.8830    6.7494 O   0  0  0  0  0  0  0  0  0  0  0  0
    4.5486    6.2054    8.2178 O   0  0  0  0  0  0  0  0  0  0  0  0
    6.3762   10.0196    6.8400 O   0  0  0  0  0  0  0  0  0  0  0  0
    8.1385   10.1002    8.2076 O   0  0  0  0  0  0  0  0  0  0  0  0
    8.4847    4.4206    6.5429 O   0  0  0  0  0  0  0  0  0  0  0  0
    6.6451    4.3133    7.7972 O   0  0  0  0  0  0  0  0  0  0  0  0
    6.8376    6.0130   10.1841 O   0  0  0  0  0  0  0  0  0  0  0  0
    7.9067    7.9692   10.3204 O   0  0  0  0  0  0  0  0  0  0  0  0
    6.5147    8.0629    4.6181 O   0  0  0  0  0  0  0  0  0  0  0  0
    8.1864    6.5857    4.5633 O   0  0  0  0  0  0  0  0  0  0  0  0
   -1.8411   -1.6184   -1.8645 O   0  0  0  0  0  0  0  0  0  0  0  0
   -1.8411   -1.6184   12.8515 O   0  0  0  0  0  0  0  0  0  0  0  0
   -1.8411   13.0976   -1.8645 O   0  0  0  0  0  0  0  0  0  0  0  0
   -1.8411   13.0976   12.8515 O   0  0  0  0  0  0  0  0  0  0  0  0
   12.8749   -1.6184   -1.8645 O   0  0  0  0  0  0  0  0  0  0  0  0
   12.8749   -1.6184   12.8515 O   0  0  0  0  0  0  0  0  0  0  0  0
   12.8749   13.0976   -1.8645 O   0  0  0  0  0  0  0  0  0  0  0  0
   12.8749   13.0976   12.8515 O   0  0  0  0  0  0  0  0  0  0  0  0
    1.0422   -2.1648   -2.6941 O   0  0  0  0  0  0  0  0  0  0  0  0
    1.0422   -2.1648   12.0219 O   0  0  0  0  0  0  0  0  0  0  0  0
    1.0422   12.5512   -2.6941 O   0  0  0  0  0  0  0  0  0  0  0  0
    1.0422   12.5512   12.0219 O   0  0  0  0  0  0  0  0  0  0  0  0
   15.7582   -2.1648   -2.6941 O   0  0  0  0  0  0  0  0  0  0  0  0
   15.7582   -2.1648   12.0219 O   0  0  0  0  0  0  0  0  0  0  0  0
   15.7582   12.5512   -2.6941 O   0  0  0  0  0  0  0  0  0  0  0  0
   15.7582   12.5512   12.0219 O   0  0  0  0  0  0  0  0  0  0  0  0
    0.9391   -0.8763   -0.8737 O   0  0  0  0  0  0  0  0  0  0  0  0
    0.9391   -0.8763   13.8423 O   0  0  0  0  0  0  0  0  0  0  0  0
    0.9391   13.8397   -0.8737 O   0  0  0  0  0  0  0  0  0  0  0  0
    0.9391   13.8397   13.8423 O   0  0  0  0  0  0  0  0  0  0  0  0
   15.6551   -0.8763   -0.8737 O   0  0  0  0  0  0  0  0  0  0  0  0
   15.6551   -0.8763   13.8423 O   0  0  0  0  0  0  0  0  0  0  0  0
   15.6551   13.8397   -0.8737 O   0  0  0  0  0  0  0  0  0  0  0  0
   15.6551   13.8397   13.8423 O   0  0  0  0  0  0  0  0  0  0  0  0
    9.9885   -0.6940   -2.3435 O   0  0  0  0  0  0  0  0  0  0  0  0
    9.9885   -0.6940   12.3725 O   0  0  0  0  0  0  0  0  0  0  0  0
    9.9885   14.0220   -2.3435 O   0  0  0  0  0  0  0  0  0  0  0  0
    9.9885   14.0220   12.3725 O   0  0  0  0  0  0  0  0  0  0  0  0
   10.0475   -2.5168   -1.0545 O   0  0  0  0  0  0  0  0  0  0  0  0
   10.0475   -2.5168   13.6615 O   0  0  0  0  0  0  0  0  0  0  0  0
   10.0475   12.1992   -1.0545 O   0  0  0  0  0  0  0  0  0  0  0  0
   10.0475   12.1992   13.6615 O   0  0  0  0  0  0  0  0  0  0  0  0
   -2.6801    1.2268   -2.5712 O   0  0  0  0  0  0  0  0  0  0  0  0
   -2.6801    1.2268   12.1448 O   0  0  0  0  0  0  0  0  0  0  0  0
   -2.6801   15.9428   -2.5712 O   0  0  0  0  0  0  0  0  0  0  0  0
   -2.6801   15.9428   12.1448 O   0  0  0  0  0  0  0  0  0  0  0  0
   12.0359    1.2268   -2.5712 O   0  0  0  0  0  0  0  0  0  0  0  0
   12.0359    1.2268   12.1448 O   0  0  0  0  0  0  0  0  0  0  0  0
   12.0359   15.9428   -2.5712 O   0  0  0  0  0  0  0  0  0  0  0  0
   12.0359   15.9428   12.1448 O   0  0  0  0  0  0  0  0  0  0  0  0
   -0.9915    1.2502   -1.1136 O   0  0  0  0  0  0  0  0  0  0  0  0
   -0.9915    1.2502   13.6024 O   0  0  0  0  0  0  0  0  0  0  0  0
   -0.9915   15.9662   -1.1136 O   0  0  0  0  0  0  0  0  0  0  0  0
   -0.9915   15.9662   13.6024 O   0  0  0  0  0  0  0  0  0  0  0  0
   13.7245    1.2502   -1.1136 O   0  0  0  0  0  0  0  0  0  0  0  0
   13.7245    1.2502   13.6024 O   0  0  0  0  0  0  0  0  0  0  0  0
   13.7245   15.9662   -1.1136 O   0  0  0  0  0  0  0  0  0  0  0  0
   13.7245   15.9662   13.6024 O   0  0  0  0  0  0  0  0  0  0  0  0
   -0.7550   10.3053   -2.7213 O   0  0  0  0  0  0  0  0  0  0  0  0
   -0.7550   10.3053   11.9947 O   0  0  0  0  0  0  0  0  0  0  0  0
   13.9610   10.3053   -2.7213 O   0  0  0  0  0  0  0  0  0  0  0  0
   13.9610   10.3053   11.9947 O   0  0  0  0  0  0  0  0  0  0  0  0
   -2.6112   10.2035   -1.4891 O   0  0  0  0  0  0  0  0  0  0  0  0
   -2.6112   10.2035   13.2269 O   0  0  0  0  0  0  0  0  0  0  0  0
   12.1048   10.2035   -1.4891 O   0  0  0  0  0  0  0  0  0  0  0  0
   12.1048   10.2035   13.2269 O   0  0  0  0  0  0  0  0  0  0  0  0
   -2.3987   -2.7484    0.9117 O   0  0  0  0  0  0  0  0  0  0  0  0
   -2.3987   -2.7484   15.6277 O   0  0  0  0  0  0  0  0  0  0  0  0
   -2.3987   11.9676    0.9117 O   0  0  0  0  0  0  0  0  0  0  0  0
   -2.3987   11.9676   15.6277 O   0  0  0  0  0  0  0  0  0  0  0  0
   12.3173   -2.7484    0.9117 O   0  0  0  0  0  0  0  0  0  0  0  0
   12.3173   -2.7484   15.6277 O   0  0  0  0  0  0  0  0  0  0  0  0
   12.3173   11.9676    0.9117 O   0  0  0  0  0  0  0  0  0  0  0  0
   12.3173   11.9676   15.6277 O   0  0  0  0  0  0  0  0  0  0  0  0
   -1.3608   -0.7794    1.0266 O   0  0  0  0  0  0  0  0  0  0  0  0
   -1.3608   -0.7794   15.7426 O   0  0  0  0  0  0  0  0  0  0  0  0
   -1.3608   13.9366    1.0266 O   0  0  0  0  0  0  0  0  0  0  0  0
   -1.3608   13.9366   15.7426 O   0  0  0  0  0  0  0  0  0  0  0  0
   13.3552   -0.7794    1.0266 O   0  0  0  0  0  0  0  0  0  0  0  0
   13.3552   -0.7794   15.7426 O   0  0  0  0  0  0  0  0  0  0  0  0
   13.3552   13.9366    1.0266 O   0  0  0  0  0  0  0  0  0  0  0  0
   13.3552   13.9366   15.7426 O   0  0  0  0  0  0  0  0  0  0  0  0
   -2.7941   -0.7519   10.0733 O   0  0  0  0  0  0  0  0  0  0  0  0
   -2.7941   13.9641   10.0733 O   0  0  0  0  0  0  0  0  0  0  0  0
   11.9219   -0.7519   10.0733 O   0  0  0  0  0  0  0  0  0  0  0  0
   11.9219   13.9641   10.0733 O   0  0  0  0  0  0  0  0  0  0  0  0
   -1.0754   -2.1807    9.9774 O   0  0  0  0  0  0  0  0  0  0  0  0
   -1.0754   12.5353    9.9774 O   0  0  0  0  0  0  0  0  0  0  0  0
   13.6406   -2.1807    9.9774 O   0  0  0  0  0  0  0  0  0  0  0  0
   13.6406   12.5353    9.9774 O   0  0  0  0  0  0  0  0  0  0  0  0
  1349  1  0  0  0  0
  1350  1  0  0  0  0
  1356  1  0  0  0  0
  1361  1  0  0  0  0
  2349  1  0  0  0  0
  2352  1  0  0  0  0
  2354  1  0  0  0  0
  2360  1  0  0  0  0
  3349  1  0  0  0  0
  3353  1  0  0  0  0
  3357  1  0  0  0  0
  3358  1  0  0  0  0
  4349  1  0  0  0  0
  4351  1  0  0  0  0
  4355  1  0  0  0  0
  4359  1  0  0  0  0
  5362  1  0  0  0  0
  5370  1  0  0  0  0
  6363  1  0  0  0  0
  6371  1  0  0  0  0
  6438  1  0  0  0  0
  7364  1  0  0  0  0
  7372  1  0  0  0  0
  7410  1  0  0  0  0
  8365  1  0  0  0  0
  8373  1  0  0  0  0
  8411  1  0  0  0  0
  8439  1  0  0  0  0
  9366  1  0  0  0  0
  9374  1  0  0  0  0
 10367  1  0  0  0  0
 10375  1  0  0  0  0
 10440  1  0  0  0  0
 11368  1  0  0  0  0
 11376  1  0  0  0  0
 11412  1  0  0  0  0
 12369  1  0  0  0  0
 12377  1  0  0  0  0
 12413  1  0  0  0  0
 12441  1  0  0  0  0
 13362  1  0  0  0  0
 13394  1  0  0  0  0
 14363  1  0  0  0  0
 14395  1  0  0  0  0
 14434  1  0  0  0  0
 15364  1  0  0  0  0
 15396  1  0  0  0  0
 16365  1  0  0  0  0
 16397  1  0  0  0  0
 16435  1  0  0  0  0
 17366  1  0  0  0  0
 17386  1  0  0  0  0
 17398  1  0  0  0  0
 18367  1  0  0  0  0
 18387  1  0  0  0  0
 18399  1  0  0  0  0
 18436  1  0  0  0  0
 19368  1  0  0  0  0
 19388  1  0  0  0  0
 19400  1  0  0  0  0
 20369  1  0  0  0  0
 20389  1  0  0  0  0
 20401  1  0  0  0  0
 20437  1  0  0  0  0
 21362  1  0  0  0  0
 21418  1  0  0  0  0
 22363  1  0  0  0  0
 22419  1  0  0  0  0
 23364  1  0  0  0  0
 23414  1  0  0  0  0
 23420  1  0  0  0  0
 24365  1  0  0  0  0
 24415  1  0  0  0  0
 24421  1  0  0  0  0
 25366  1  0  0  0  0
 25390  1  0  0  0  0
 25422  1  0  0  0  0
 26367  1  0  0  0  0
 26391  1  0  0  0  0
 26423  1  0  0  0  0
 27368  1  0  0  0  0
 27392  1  0  0  0  0
 27416  1  0  0  0  0
 27424  1  0  0  0  0
 28369  1  0  0  0  0
 28393  1  0  0  0  0
 28417  1  0  0  0  0
 28425  1  0  0  0  0
 29362  1  0  0  0  0
 29378  1  0  0  0  0
 29402  1  0  0  0  0
 29426  1  0  0  0  0
 30363  1  0  0  0  0
 30379  1  0  0  0  0
 30403  1  0  0  0  0
 30427  1  0  0  0  0
 31364  1  0  0  0  0
 31380  1  0  0  0  0
 31404  1  0  0  0  0
 31428  1  0  0  0  0
 32365  1  0  0  0  0
 32381  1  0  0  0  0
 32405  1  0  0  0  0
 32429  1  0  0  0  0
 33366  1  0  0  0  0
 33382  1  0  0  0  0
 33406  1  0  0  0  0
 33430  1  0  0  0  0
 34367  1  0  0  0  0
 34383  1  0  0  0  0
 34407  1  0  0  0  0
 34431  1  0  0  0  0
 35368  1  0  0  0  0
 35384  1  0  0  0  0
 35408  1  0  0  0  0
 35432  1  0  0  0  0
 36369  1  0  0  0  0
 36385  1  0  0  0  0
 36409  1  0  0  0  0
 36433  1  0  0  0  0
 37130  1  0  0  0  0
 38131  1  0  0  0  0
 39132  1  0  0  0  0
 40133  1  0  0  0  0
 41136  1  0  0  0  0
 42137  1  0  0  0  0
 43141  1  0  0  0  0
 44142  1  0  0  0  0
 45143  1  0  0  0  0
 46144  1  0  0  0  0
 47147  1  0  0  0  0
 48148  1  0  0  0  0
 49152  1  0  0  0  0
 50153  1  0  0  0  0
 51154  1  0  0  0  0
 52155  1  0  0  0  0
 53158  1  0  0  0  0
 54159  1  0  0  0  0
 55163  1  0  0  0  0
 56164  1  0  0  0  0
 57165  1  0  0  0  0
 58166  1  0  0  0  0
 59169  1  0  0  0  0
 60170  1  0  0  0  0
 61174  1  0  0  0  0
 62175  1  0  0  0  0
 63176  1  0  0  0  0
 64177  1  0  0  0  0
 65180  1  0  0  0  0
 66181  1  0  0  0  0
 67185  1  0  0  0  0
 68186  1  0  0  0  0
 69187  1  0  0  0  0
 70188  1  0  0  0  0
 71191  1  0  0  0  0
 72192  1  0  0  0  0
 73209  1  0  0  0  0
 74210  1  0  0  0  0
 75211  1  0  0  0  0
 76212  1  0  0  0  0
 77213  1  0  0  0  0
 78214  1  0  0  0  0
 79215  1  0  0  0  0
 80216  1  0  0  0  0
 81221  1  0  0  0  0
 82222  1  0  0  0  0
 83223  1  0  0  0  0
 84224  1  0  0  0  0
 85235  1  0  0  0  0
 86236  1  0  0  0  0
 87237  1  0  0  0  0
 88238  1  0  0  0  0
 89245  1  0  0  0  0
 90246  1  0  0  0  0
 91259  1  0  0  0  0
 92260  1  0  0  0  0
 93261  1  0  0  0  0
 94262  1  0  0  0  0
 95269  1  0  0  0  0
 96270  1  0  0  0  0
 97279  1  0  0  0  0
 98280  1  0  0  0  0
 99281  1  0  0  0  0
100282  1  0  0  0  0
101283  1  0  0  0  0
102284  1  0  0  0  0
103285  1  0  0  0  0
104286  1  0  0  0  0
105291  1  0  0  0  0
106292  1  0  0  0  0
107293  1  0  0  0  0
108294  1  0  0  0  0
109312  1  0  0  0  0
110314  1  0  0  0  0
111315  1  0  0  0  0
112316  1  0  0  0  0
113322  1  0  0  0  0
114324  1  0  0  0  0
115333  1  0  0  0  0
116334  1  0  0  0  0
117335  1  0  0  0  0
118336  1  0  0  0  0
119337  1  0  0  0  0
120338  1  0  0  0  0
121339  1  0  0  0  0
122340  1  0  0  0  0
123345  1  0  0  0  0
124346  1  0  0  0  0
125347  1  0  0  0  0
126348  1  0  0  0  0
127129  1  0  0  0  0
127350  1  0  0  0  0
127351  1  0  0  0  0
128130  1  0  0  0  0
128147  1  0  0  0  0
129131  1  0  0  0  0
129148  1  0  0  0  0
130132  1  0  0  0  0
131133  1  0  0  0  0
132134  1  0  0  0  0
133135  1  0  0  0  0
134136  1  0  0  0  0
134145  1  0  0  0  0
135137  1  0  0  0  0
135146  1  0  0  0  0
136138  1  0  0  0  0
137139  1  0  0  0  0
138140  1  0  0  0  0
138141  1  0  0  0  0
139142  1  0  0  0  0
140352  1  0  0  0  0
140353  1  0  0  0  0
141143  1  0  0  0  0
142144  1  0  0  0  0
143145  1  0  0  0  0
144146  1  0  0  0  0
145147  1  0  0  0  0
146148  1  0  0  0  0
149151  1  0  0  0  0
149354  1  0  0  0  0
149355  1  0  0  0  0
150152  1  0  0  0  0
150169  1  0  0  0  0
151153  1  0  0  0  0
151170  1  0  0  0  0
152154  1  0  0  0  0
153155  1  0  0  0  0
154156  1  0  0  0  0
155157  1  0  0  0  0
156158  1  0  0  0  0
156167  1  0  0  0  0
157159  1  0  0  0  0
157168  1  0  0  0  0
158160  1  0  0  0  0
159161  1  0  0  0  0
160162  1  0  0  0  0
160163  1  0  0  0  0
161164  1  0  0  0  0
162356  1  0  0  0  0
162357  1  0  0  0  0
163165  1  0  0  0  0
164166  1  0  0  0  0
165167  1  0  0  0  0
166168  1  0  0  0  0
167169  1  0  0  0  0
168170  1  0  0  0  0
171173  1  0  0  0  0
171358  1  0  0  0  0
171359  1  0  0  0  0
172174  1  0  0  0  0
172191  1  0  0  0  0
173175  1  0  0  0  0
173192  1  0  0  0  0
174176  1  0  0  0  0
175177  1  0  0  0  0
176178  1  0  0  0  0
177179  1  0  0  0  0
178180  1  0  0  0  0
178189  1  0  0  0  0
179181  1  0  0  0  0
179190  1  0  0  0  0
180182  1  0  0  0  0
181183  1  0  0  0  0
182184  1  0  0  0  0
182185  1  0  0  0  0
183186  1  0  0  0  0
184360  1  0  0  0  0
184361  1  0  0  0  0
185187  1  0  0  0  0
186188  1  0  0  0  0
187189  1  0  0  0  0
188190  1  0  0  0  0
189191  1  0  0  0  0
190192  1  0  0  0  0
193201  1  0  0  0  0
193370  1  0  0  0  0
193378  1  0  0  0  0
194202  1  0  0  0  0
194371  1  0  0  0  0
194379  1  0  0  0  0
195203  1  0  0  0  0
195372  1  0  0  0  0
195380  1  0  0  0  0
196204  1  0  0  0  0
196373  1  0  0  0  0
196381  1  0  0  0  0
197205  1  0  0  0  0
197374  1  0  0  0  0
197382  1  0  0  0  0
198206  1  0  0  0  0
198375  1  0  0  0  0
198383  1  0  0  0  0
199207  1  0  0  0  0
199376  1  0  0  0  0
199384  1  0  0  0  0
200208  1  0  0  0  0
200377  1  0  0  0  0
200385  1  0  0  0  0
201209  1  0  0  0  0
201243  1  0  0  0  0
202210  1  0  0  0  0
202244  1  0  0  0  0
203211  1  0  0  0  0
203245  1  0  0  0  0
204212  1  0  0  0  0
204246  1  0  0  0  0
209213  1  0  0  0  0
210214  1  0  0  0  0
211215  1  0  0  0  0
212216  1  0  0  0  0
213217  1  0  0  0  0
214218  1  0  0  0  0
215219  1  0  0  0  0
216220  1  0  0  0  0
217221  1  0  0  0  0
217239  1  0  0  0  0
218222  1  0  0  0  0
218240  1  0  0  0  0
219223  1  0  0  0  0
219241  1  0  0  0  0
220224  1  0  0  0  0
220242  1  0  0  0  0
221225  1  0  0  0  0
222226  1  0  0  0  0
223227  1  0  0  0  0
224228  1  0  0  0  0
225229  1  0  0  0  0
225233  1  0  0  0  0
226230  1  0  0  0  0
226234  1  0  0  0  0
227231  1  0  0  0  0
227235  1  0  0  0  0
228232  1  0  0  0  0
228236  1  0  0  0  0
229386  1  0  0  0  0
229390  1  0  0  0  0
230387  1  0  0  0  0
230391  1  0  0  0  0
231388  1  0  0  0  0
231392  1  0  0  0  0
232389  1  0  0  0  0
232393  1  0  0  0  0
235237  1  0  0  0  0
236238  1  0  0  0  0
237241  1  0  0  0  0
238242  1  0  0  0  0
239243  1  0  0  0  0
240244  1  0  0  0  0
241245  1  0  0  0  0
242246  1  0  0  0  0
247255  1  0  0  0  0
247394  1  0  0  0  0
247402  1  0  0  0  0
248256  1  0  0  0  0
248395  1  0  0  0  0
248403  1  0  0  0  0
249396  1  0  0  0  0
249404  1  0  0  0  0
250397  1  0  0  0  0
250405  1  0  0  0  0
251257  1  0  0  0  0
251398  1  0  0  0  0
251406  1  0  0  0  0
252258  1  0  0  0  0
252399  1  0  0  0  0
252407  1  0  0  0  0
253400  1  0  0  0  0
253408  1  0  0  0  0
254401  1  0  0  0  0
254409  1  0  0  0  0
255291  1  0  0  0  0
256292  1  0  0  0  0
257259  1  0  0  0  0
257293  1  0  0  0  0
258260  1  0  0  0  0
258294  1  0  0  0  0
259261  1  0  0  0  0
260262  1  0  0  0  0
261265  1  0  0  0  0
262266  1  0  0  0  0
263267  1  0  0  0  0
263287  1  0  0  0  0
264268  1  0  0  0  0
264288  1  0  0  0  0
265269  1  0  0  0  0
265289  1  0  0  0  0
266270  1  0  0  0  0
266290  1  0  0  0  0
267271  1  0  0  0  0
268272  1  0  0  0  0
269273  1  0  0  0  0
270274  1  0  0  0  0
271275  1  0  0  0  0
271279  1  0  0  0  0
272276  1  0  0  0  0
272280  1  0  0  0  0
273277  1  0  0  0  0
273281  1  0  0  0  0
274278  1  0  0  0  0
274282  1  0  0  0  0
275410  1  0  0  0  0
275414  1  0  0  0  0
276411  1  0  0  0  0
276415  1  0  0  0  0
277412  1  0  0  0  0
277416  1  0  0  0  0
278413  1  0  0  0  0
278417  1  0  0  0  0
279283  1  0  0  0  0
280284  1  0  0  0  0
281285  1  0  0  0  0
282286  1  0  0  0  0
283287  1  0  0  0  0
284288  1  0  0  0  0
285289  1  0  0  0  0
286290  1  0  0  0  0
287291  1  0  0  0  0
288292  1  0  0  0  0
289293  1  0  0  0  0
290294  1  0  0  0  0
295303  1  0  0  0  0
295418  1  0  0  0  0
295426  1  0  0  0  0
296304  1  0  0  0  0
296419  1  0  0  0  0
296427  1  0  0  0  0
297305  1  0  0  0  0
297420  1  0  0  0  0
297428  1  0  0  0  0
298306  1  0  0  0  0
298421  1  0  0  0  0
298429  1  0  0  0  0
299307  1  0  0  0  0
299422  1  0  0  0  0
299430  1  0  0  0  0
300308  1  0  0  0  0
300423  1  0  0  0  0
300431  1  0  0  0  0
301309  1  0  0  0  0
301424  1  0  0  0  0
301432  1  0  0  0  0
302310  1  0  0  0  0
302425  1  0  0  0  0
302433  1  0  0  0  0
303311  1  0  0  0  0
303345  1  0  0  0  0
305312  1  0  0  0  0
305346  1  0  0  0  0
307313  1  0  0  0  0
307347  1  0  0  0  0
309314  1  0  0  0  0
309348  1  0  0  0  0
312315  1  0  0  0  0
314316  1  0  0  0  0
315318  1  0  0  0  0
316320  1  0  0  0  0
317321  1  0  0  0  0
317341  1  0  0  0  0
318322  1  0  0  0  0
318342  1  0  0  0  0
319323  1  0  0  0  0
319343  1  0  0  0  0
320324  1  0  0  0  0
320344  1  0  0  0  0
321325  1  0  0  0  0
322326  1  0  0  0  0
323327  1  0  0  0  0
324328  1  0  0  0  0
325329  1  0  0  0  0
325333  1  0  0  0  0
326330  1  0  0  0  0
326334  1  0  0  0  0
327331  1  0  0  0  0
327335  1  0  0  0  0
328332  1  0  0  0  0
328336  1  0  0  0  0
329434  1  0  0  0  0
329438  1  0  0  0  0
330435  1  0  0  0  0
330439  1  0  0  0  0
331436  1  0  0  0  0
331440  1  0  0  0  0
332437  1  0  0  0  0
332441  1  0  0  0  0
333337  1  0  0  0  0
334338  1  0  0  0  0
335339  1  0  0  0  0
336340  1  0  0  0  0
337341  1  0  0  0  0
338342  1  0  0  0  0
339343  1  0  0  0  0
340344  1  0  0  0  0
341345  1  0  0  0  0
342346  1  0  0  0  0
343347  1  0  0  0  0
344348  1  0  0  0  0
M  END
$$$$
