ndc_zn4o_pcu_ip2_off380
AtomForge visual export

674755  0  0  0  0            999 V2000
    8.4899    6.2544    6.3578 Zn  0  0  0  0  0  0  0  0  0  0  0  0
    8.4899   20.9704    6.3578 Zn  0  0  0  0  0  0  0  0  0  0  0  0
   23.2059    6.2544    6.3578 Zn  0  0  0  0  0  0  0  0  0  0  0  0
   23.2059   20.9704    6.3578 Zn  0  0  0  0  0  0  0  0  0  0  0  0
    6.2284    8.2374    6.4400 Zn  0  0  0  0  0  0  0  0  0  0  0  0
    6.2284   22.9534    6.4400 Zn  0  0  0  0  0  0  0  0  0  0  0  0
   20.9444    8.2374    6.4400 Zn  0  0  0  0  0  0  0  0  0  0  0  0
   20.9444   22.9534    6.4400 Zn  0  0  0  0  0  0  0  0  0  0  0  0
    6.3834    6.0379    8.3787 Zn  0  0  0  0  0  0  0  0  0  0  0  0
    6.3834   20.7539    8.3787 Zn  0  0  0  0  0  0  0  0  0  0  0  0
   21.0994    6.0379    8.3787 Zn  0  0  0  0  0  0  0  0  0  0  0  0
   21.0994   20.7539    8.3787 Zn  0  0  0  0  0  0  0  0  0  0  0  0
    8.3145    8.2833    8.5344 Zn  0  0  0  0  0  0  0  0  0  0  0  0
    8.3145   22.9993    8.5344 Zn  0  0  0  0  0  0  0  0  0  0  0  0
   23.0305    8.2833    8.5344 Zn  0  0  0  0  0  0  0  0  0  0  0  0
   23.0305   22.9993    8.5344 Zn  0  0  0  0  0  0  0  0  0  0  0  0
   13.9716   12.1396   11.7662 Zn  0  0  0  0  0  0  0  0  0  0  0  0
   13.9716   26.8556   11.7662 Zn  0  0  0  0  0  0  0  0  0  0  0  0
   -0.7444   12.1396   11.7662 Zn  0  0  0  0  0  0  0  0  0  0  0  0
   28.6876   12.1396   11.7662 Zn  0  0  0  0  0  0  0  0  0  0  0  0
   -0.7444   26.8556   11.7662 Zn  0  0  0  0  0  0  0  0  0  0  0  0
   28.6876   26.8556   11.7662 Zn  0  0  0  0  0  0  0  0  0  0  0  0
   11.7543   14.1568   11.9049 Zn  0  0  0  0  0  0  0  0  0  0  0  0
   11.7543   -0.5592   11.9049 Zn  0  0  0  0  0  0  0  0  0  0  0  0
   11.7543   28.8728   11.9049 Zn  0  0  0  0  0  0  0  0  0  0  0  0
   26.4703   14.1568   11.9049 Zn  0  0  0  0  0  0  0  0  0  0  0  0
   26.4703   -0.5592   11.9049 Zn  0  0  0  0  0  0  0  0  0  0  0  0
   26.4703   28.8728   11.9049 Zn  0  0  0  0  0  0  0  0  0  0  0  0
   11.8754   11.9299   13.8155 Zn  0  0  0  0  0  0  0  0  0  0  0  0
   11.8754   26.6459   13.8155 Zn  0  0  0  0  0  0  0  0  0  0  0  0
   26.5914   11.9299   13.8155 Zn  0  0  0  0  0  0  0  0  0  0  0  0
   26.5914   26.6459   13.8155 Zn  0  0  0  0  0  0  0  0  0  0  0  0
   13.8425   14.1514   13.9673 Zn  0  0  0  0  0  0  0  0  0  0  0  0
   13.8425   -0.5646   13.9673 Zn  0  0  0  0  0  0  0  0  0  0  0  0
   13.8425   28.8674   13.9673 Zn  0  0  0  0  0  0  0  0  0  0  0  0
   -0.8735   14.1514   13.9673 Zn  0  0  0  0  0  0  0  0  0  0  0  0
   28.5585   14.1514   13.9673 Zn  0  0  0  0  0  0  0  0  0  0  0  0
   -0.8735   -0.5646   13.9673 Zn  0  0  0  0  0  0  0  0  0  0  0  0
   -0.8735   28.8674   13.9673 Zn  0  0  0  0  0  0  0  0  0  0  0  0
   28.5585   -0.5646   13.9673 Zn  0  0  0  0  0  0  0  0  0  0  0  0
   28.5585   28.8674   13.9673 Zn  0  0  0  0  0  0  0  0  0  0  0  0
   12.1150    9.5332    7.9876 H   0  0  0  0  0  0  0  0  0  0  0  0
   12.1150   24.2492    7.9876 H   0  0  0  0  0  0  0  0  0  0  0  0
   26.8310    9.5332    7.9876 H   0  0  0  0  0  0  0  0  0  0  0  0
   26.8310   24.2492    7.9876 H   0  0  0  0  0  0  0  0  0  0  0  0
   14.6187    9.8586    7.7008 H   0  0  0  0  0  0  0  0  0  0  0  0
   14.6187   24.5746    7.7008 H   0  0  0  0  0  0  0  0  0  0  0  0
   -0.0973    9.8586    7.7008 H   0  0  0  0  0  0  0  0  0  0  0  0
   29.3347    9.8586    7.7008 H   0  0  0  0  0  0  0  0  0  0  0  0
   -0.0973   24.5746    7.7008 H   0  0  0  0  0  0  0  0  0  0  0  0
   29.3347   24.5746    7.7008 H   0  0  0  0  0  0  0  0  0  0  0  0
    2.0961    8.8935    7.3621 H   0  0  0  0  0  0  0  0  0  0  0  0
    2.0961   23.6095    7.3621 H   0  0  0  0  0  0  0  0  0  0  0  0
   16.8121    8.8935    7.3621 H   0  0  0  0  0  0  0  0  0  0  0  0
   16.8121   23.6095    7.3621 H   0  0  0  0  0  0  0  0  0  0  0  0
    2.5708    4.6581    7.3081 H   0  0  0  0  0  0  0  0  0  0  0  0
    2.5708   19.3741    7.3081 H   0  0  0  0  0  0  0  0  0  0  0  0
   17.2868    4.6581    7.3081 H   0  0  0  0  0  0  0  0  0  0  0  0
   17.2868   19.3741    7.3081 H   0  0  0  0  0  0  0  0  0  0  0  0
    0.0922    4.3681    7.1711 H   0  0  0  0  0  0  0  0  0  0  0  0
   29.5242    4.3681    7.1711 H   0  0  0  0  0  0  0  0  0  0  0  0
    0.0922   19.0841    7.1711 H   0  0  0  0  0  0  0  0  0  0  0  0
   29.5242   19.0841    7.1711 H   0  0  0  0  0  0  0  0  0  0  0  0
   14.8082    4.3681    7.1711 H   0  0  0  0  0  0  0  0  0  0  0  0
   14.8082   19.0841    7.1711 H   0  0  0  0  0  0  0  0  0  0  0  0
   12.5329    5.3852    7.2224 H   0  0  0  0  0  0  0  0  0  0  0  0
   12.5329   20.1012    7.2224 H   0  0  0  0  0  0  0  0  0  0  0  0
   27.2489    5.3852    7.2224 H   0  0  0  0  0  0  0  0  0  0  0  0
   27.2489   20.1012    7.2224 H   0  0  0  0  0  0  0  0  0  0  0  0
    4.9494   12.0243    7.3618 H   0  0  0  0  0  0  0  0  0  0  0  0
    4.9494   26.7403    7.3618 H   0  0  0  0  0  0  0  0  0  0  0  0
   19.6654   12.0243    7.3618 H   0  0  0  0  0  0  0  0  0  0  0  0
   19.6654   26.7403    7.3618 H   0  0  0  0  0  0  0  0  0  0  0  0
    4.6822   14.4982    7.4054 H   0  0  0  0  0  0  0  0  0  0  0  0
    4.6822   -0.2178    7.4054 H   0  0  0  0  0  0  0  0  0  0  0  0
    4.6822   29.2142    7.4054 H   0  0  0  0  0  0  0  0  0  0  0  0
   19.3982   14.4982    7.4054 H   0  0  0  0  0  0  0  0  0  0  0  0
   19.3982   -0.2178    7.4054 H   0  0  0  0  0  0  0  0  0  0  0  0
   19.3982   29.2142    7.4054 H   0  0  0  0  0  0  0  0  0  0  0  0
    5.7073    2.0224    7.4528 H   0  0  0  0  0  0  0  0  0  0  0  0
    5.7073   16.7384    7.4528 H   0  0  0  0  0  0  0  0  0  0  0  0
   20.4233    2.0224    7.4528 H   0  0  0  0  0  0  0  0  0  0  0  0
   20.4233   16.7384    7.4528 H   0  0  0  0  0  0  0  0  0  0  0  0
    9.9290    2.4157    7.1952 H   0  0  0  0  0  0  0  0  0  0  0  0
    9.9290   17.1317    7.1952 H   0  0  0  0  0  0  0  0  0  0  0  0
   24.6450    2.4157    7.1952 H   0  0  0  0  0  0  0  0  0  0  0  0
   24.6450   17.1317    7.1952 H   0  0  0  0  0  0  0  0  0  0  0  0
   10.2113   14.6723    7.5108 H   0  0  0  0  0  0  0  0  0  0  0  0
   10.2113   -0.0437    7.5108 H   0  0  0  0  0  0  0  0  0  0  0  0
   10.2113   29.3883    7.5108 H   0  0  0  0  0  0  0  0  0  0  0  0
   24.9273   14.6723    7.5108 H   0  0  0  0  0  0  0  0  0  0  0  0
   24.9273   -0.0437    7.5108 H   0  0  0  0  0  0  0  0  0  0  0  0
   24.9273   29.3883    7.5108 H   0  0  0  0  0  0  0  0  0  0  0  0
    9.1718   12.4306    7.7772 H   0  0  0  0  0  0  0  0  0  0  0  0
    9.1718   27.1466    7.7772 H   0  0  0  0  0  0  0  0  0  0  0  0
   23.8878   12.4306    7.7772 H   0  0  0  0  0  0  0  0  0  0  0  0
   23.8878   27.1466    7.7772 H   0  0  0  0  0  0  0  0  0  0  0  0
    7.3402    4.6381   12.2028 H   0  0  0  0  0  0  0  0  0  0  0  0
    7.3402   19.3541   12.2028 H   0  0  0  0  0  0  0  0  0  0  0  0
   22.0562    4.6381   12.2028 H   0  0  0  0  0  0  0  0  0  0  0  0
   22.0562   19.3541   12.2028 H   0  0  0  0  0  0  0  0  0  0  0  0
    7.4417    4.3540   -0.0354 H   0  0  0  0  0  0  0  0  0  0  0  0
    7.4417    4.3540   14.6806 H   0  0  0  0  0  0  0  0  0  0  0  0
    7.4417   19.0700   -0.0354 H   0  0  0  0  0  0  0  0  0  0  0  0
    7.4417   19.0700   14.6806 H   0  0  0  0  0  0  0  0  0  0  0  0
   22.1577    4.3540   -0.0354 H   0  0  0  0  0  0  0  0  0  0  0  0
   22.1577    4.3540   14.6806 H   0  0  0  0  0  0  0  0  0  0  0  0
   22.1577   19.0700   -0.0354 H   0  0  0  0  0  0  0  0  0  0  0  0
   22.1577   19.0700   14.6806 H   0  0  0  0  0  0  0  0  0  0  0  0
    7.5435    5.3840    2.2406 H   0  0  0  0  0  0  0  0  0  0  0  0
    7.5435   20.1000    2.2406 H   0  0  0  0  0  0  0  0  0  0  0  0
   22.2595    5.3840    2.2406 H   0  0  0  0  0  0  0  0  0  0  0  0
   22.2595   20.1000    2.2406 H   0  0  0  0  0  0  0  0  0  0  0  0
    7.3136    9.6254    2.6060 H   0  0  0  0  0  0  0  0  0  0  0  0
    7.3136   24.3414    2.6060 H   0  0  0  0  0  0  0  0  0  0  0  0
   22.0296    9.6254    2.6060 H   0  0  0  0  0  0  0  0  0  0  0  0
   22.0296   24.3414    2.6060 H   0  0  0  0  0  0  0  0  0  0  0  0
    7.5872    9.8761    0.1431 H   0  0  0  0  0  0  0  0  0  0  0  0
    7.5872   24.5921    0.1431 H   0  0  0  0  0  0  0  0  0  0  0  0
   22.3032    9.8761    0.1431 H   0  0  0  0  0  0  0  0  0  0  0  0
   22.3032   24.5921    0.1431 H   0  0  0  0  0  0  0  0  0  0  0  0
    7.7238    8.8449   12.6344 H   0  0  0  0  0  0  0  0  0  0  0  0
    7.7238   23.5609   12.6344 H   0  0  0  0  0  0  0  0  0  0  0  0
   22.4398    8.8449   12.6344 H   0  0  0  0  0  0  0  0  0  0  0  0
   22.4398   23.5609   12.6344 H   0  0  0  0  0  0  0  0  0  0  0  0
    2.8568    0.8589   13.1166 H   0  0  0  0  0  0  0  0  0  0  0  0
    2.8568   30.2909   13.1166 H   0  0  0  0  0  0  0  0  0  0  0  0
    2.8568   15.5749   13.1166 H   0  0  0  0  0  0  0  0  0  0  0  0
   17.5728    0.8589   13.1166 H   0  0  0  0  0  0  0  0  0  0  0  0
   17.5728   30.2909   13.1166 H   0  0  0  0  0  0  0  0  0  0  0  0
   17.5728   15.5749   13.1166 H   0  0  0  0  0  0  0  0  0  0  0  0
    5.3207    1.2337   12.9065 H   0  0  0  0  0  0  0  0  0  0  0  0
    5.3207   15.9497   12.9065 H   0  0  0  0  0  0  0  0  0  0  0  0
   20.0367    1.2337   12.9065 H   0  0  0  0  0  0  0  0  0  0  0  0
   20.0367   15.9497   12.9065 H   0  0  0  0  0  0  0  0  0  0  0  0
    7.6022    0.2852   12.8470 H   0  0  0  0  0  0  0  0  0  0  0  0
    7.6022   29.7172   12.8470 H   0  0  0  0  0  0  0  0  0  0  0  0
    7.6022   15.0012   12.8470 H   0  0  0  0  0  0  0  0  0  0  0  0
   22.3182    0.2852   12.8470 H   0  0  0  0  0  0  0  0  0  0  0  0
   22.3182   29.7172   12.8470 H   0  0  0  0  0  0  0  0  0  0  0  0
   22.3182   15.0012   12.8470 H   0  0  0  0  0  0  0  0  0  0  0  0
    8.1658   10.8027   12.6864 H   0  0  0  0  0  0  0  0  0  0  0  0
    8.1658   25.5187   12.6864 H   0  0  0  0  0  0  0  0  0  0  0  0
   22.8818   10.8027   12.6864 H   0  0  0  0  0  0  0  0  0  0  0  0
   22.8818   25.5187   12.6864 H   0  0  0  0  0  0  0  0  0  0  0  0
    5.6688   10.4521   12.4806 H   0  0  0  0  0  0  0  0  0  0  0  0
    5.6688   25.1681   12.4806 H   0  0  0  0  0  0  0  0  0  0  0  0
   20.3848   10.4521   12.4806 H   0  0  0  0  0  0  0  0  0  0  0  0
   20.3848   25.1681   12.4806 H   0  0  0  0  0  0  0  0  0  0  0  0
    3.4083   11.3936   12.5666 H   0  0  0  0  0  0  0  0  0  0  0  0
    3.4083   26.1096   12.5666 H   0  0  0  0  0  0  0  0  0  0  0  0
   18.1243   11.3936   12.5666 H   0  0  0  0  0  0  0  0  0  0  0  0
   18.1243   26.1096   12.5666 H   0  0  0  0  0  0  0  0  0  0  0  0
   10.5156    3.1382   12.8509 H   0  0  0  0  0  0  0  0  0  0  0  0
   10.5156   17.8542   12.8509 H   0  0  0  0  0  0  0  0  0  0  0  0
   25.2316    3.1382   12.8509 H   0  0  0  0  0  0  0  0  0  0  0  0
   25.2316   17.8542   12.8509 H   0  0  0  0  0  0  0  0  0  0  0  0
   10.1931    5.6124   12.9180 H   0  0  0  0  0  0  0  0  0  0  0  0
   10.1931   20.3284   12.9180 H   0  0  0  0  0  0  0  0  0  0  0  0
   24.9091    5.6124   12.9180 H   0  0  0  0  0  0  0  0  0  0  0  0
   24.9091   20.3284   12.9180 H   0  0  0  0  0  0  0  0  0  0  0  0
   11.1795    7.8663   12.9144 H   0  0  0  0  0  0  0  0  0  0  0  0
   11.1795   22.5823   12.9144 H   0  0  0  0  0  0  0  0  0  0  0  0
   25.8955    7.8663   12.9144 H   0  0  0  0  0  0  0  0  0  0  0  0
   25.8955   22.5823   12.9144 H   0  0  0  0  0  0  0  0  0  0  0  0
    0.6887    8.3261   12.6610 H   0  0  0  0  0  0  0  0  0  0  0  0
   30.1207    8.3261   12.6610 H   0  0  0  0  0  0  0  0  0  0  0  0
    0.6887   23.0421   12.6610 H   0  0  0  0  0  0  0  0  0  0  0  0
   30.1207   23.0421   12.6610 H   0  0  0  0  0  0  0  0  0  0  0  0
   15.4047    8.3261   12.6610 H   0  0  0  0  0  0  0  0  0  0  0  0
   15.4047   23.0421   12.6610 H   0  0  0  0  0  0  0  0  0  0  0  0
    1.0049    5.8791   12.9842 H   0  0  0  0  0  0  0  0  0  0  0  0
   30.4369    5.8791   12.9842 H   0  0  0  0  0  0  0  0  0  0  0  0
    1.0049   20.5951   12.9842 H   0  0  0  0  0  0  0  0  0  0  0  0
   30.4369   20.5951   12.9842 H   0  0  0  0  0  0  0  0  0  0  0  0
   15.7209    5.8791   12.9842 H   0  0  0  0  0  0  0  0  0  0  0  0
   15.7209   20.5951   12.9842 H   0  0  0  0  0  0  0  0  0  0  0  0
    0.0052    3.6178   13.2598 H   0  0  0  0  0  0  0  0  0  0  0  0
   29.4372    3.6178   13.2598 H   0  0  0  0  0  0  0  0  0  0  0  0
    0.0052   18.3338   13.2598 H   0  0  0  0  0  0  0  0  0  0  0  0
   29.4372   18.3338   13.2598 H   0  0  0  0  0  0  0  0  0  0  0  0
   14.7212    3.6178   13.2598 H   0  0  0  0  0  0  0  0  0  0  0  0
   14.7212   18.3338   13.2598 H   0  0  0  0  0  0  0  0  0  0  0  0
   12.7215   10.6755    2.9719 H   0  0  0  0  0  0  0  0  0  0  0  0
   12.7215   25.3915    2.9719 H   0  0  0  0  0  0  0  0  0  0  0  0
   27.4375   10.6755    2.9719 H   0  0  0  0  0  0  0  0  0  0  0  0
   27.4375   25.3915    2.9719 H   0  0  0  0  0  0  0  0  0  0  0  0
   12.8607   10.4260    5.4493 H   0  0  0  0  0  0  0  0  0  0  0  0
   12.8607   25.1420    5.4493 H   0  0  0  0  0  0  0  0  0  0  0  0
   27.5767   10.4260    5.4493 H   0  0  0  0  0  0  0  0  0  0  0  0
   27.5767   25.1420    5.4493 H   0  0  0  0  0  0  0  0  0  0  0  0
   13.0135   11.4525    7.6641 H   0  0  0  0  0  0  0  0  0  0  0  0
   13.0135   26.1685    7.6641 H   0  0  0  0  0  0  0  0  0  0  0  0
   27.7295   11.4525    7.6641 H   0  0  0  0  0  0  0  0  0  0  0  0
   27.7295   26.1685    7.6641 H   0  0  0  0  0  0  0  0  0  0  0  0
   12.8126    0.9597    8.0867 H   0  0  0  0  0  0  0  0  0  0  0  0
   12.8126   30.3917    8.0867 H   0  0  0  0  0  0  0  0  0  0  0  0
   12.8126   15.6757    8.0867 H   0  0  0  0  0  0  0  0  0  0  0  0
   27.5286    0.9597    8.0867 H   0  0  0  0  0  0  0  0  0  0  0  0
   27.5286   30.3917    8.0867 H   0  0  0  0  0  0  0  0  0  0  0  0
   27.5286   15.6757    8.0867 H   0  0  0  0  0  0  0  0  0  0  0  0
   12.9477    1.2305    5.6113 H   0  0  0  0  0  0  0  0  0  0  0  0
   12.9477   15.9465    5.6113 H   0  0  0  0  0  0  0  0  0  0  0  0
   27.6637    1.2305    5.6113 H   0  0  0  0  0  0  0  0  0  0  0  0
   27.6637   15.9465    5.6113 H   0  0  0  0  0  0  0  0  0  0  0  0
   13.0165    0.1957    3.3375 H   0  0  0  0  0  0  0  0  0  0  0  0
   13.0165   29.6277    3.3375 H   0  0  0  0  0  0  0  0  0  0  0  0
   13.0165   14.9117    3.3375 H   0  0  0  0  0  0  0  0  0  0  0  0
   27.7325    0.1957    3.3375 H   0  0  0  0  0  0  0  0  0  0  0  0
   27.7325   29.6277    3.3375 H   0  0  0  0  0  0  0  0  0  0  0  0
   27.7325   14.9117    3.3375 H   0  0  0  0  0  0  0  0  0  0  0  0
   10.7655    7.3270    7.5950 C   0  0  0  0  0  0  0  0  0  0  0  0
   10.7655   22.0430    7.5950 C   0  0  0  0  0  0  0  0  0  0  0  0
   25.4815    7.3270    7.5950 C   0  0  0  0  0  0  0  0  0  0  0  0
   25.4815   22.0430    7.5950 C   0  0  0  0  0  0  0  0  0  0  0  0
   12.2365    7.4520    7.5829 C   0  0  0  0  0  0  0  0  0  0  0  0
   12.2365   22.1680    7.5829 C   0  0  0  0  0  0  0  0  0  0  0  0
   26.9525    7.4520    7.5829 C   0  0  0  0  0  0  0  0  0  0  0  0
   26.9525   22.1680    7.5829 C   0  0  0  0  0  0  0  0  0  0  0  0
   12.7982    8.7294    7.7597 C   0  0  0  0  0  0  0  0  0  0  0  0
   12.7982   23.4454    7.7597 C   0  0  0  0  0  0  0  0  0  0  0  0
   27.5142    8.7294    7.7597 C   0  0  0  0  0  0  0  0  0  0  0  0
   27.5142   23.4454    7.7597 C   0  0  0  0  0  0  0  0  0  0  0  0
   14.1447    8.8926    7.6201 C   0  0  0  0  0  0  0  0  0  0  0  0
   14.1447   23.6086    7.6201 C   0  0  0  0  0  0  0  0  0  0  0  0
   -0.5713    8.8926    7.6201 C   0  0  0  0  0  0  0  0  0  0  0  0
   28.8607    8.8926    7.6201 C   0  0  0  0  0  0  0  0  0  0  0  0
   -0.5713   23.6086    7.6201 C   0  0  0  0  0  0  0  0  0  0  0  0
   28.8607   23.6086    7.6201 C   0  0  0  0  0  0  0  0  0  0  0  0
    0.2581    7.7706    7.4124 C   0  0  0  0  0  0  0  0  0  0  0  0
   29.6901    7.7706    7.4124 C   0  0  0  0  0  0  0  0  0  0  0  0
    0.2581   22.4866    7.4124 C   0  0  0  0  0  0  0  0  0  0  0  0
   29.6901   22.4866    7.4124 C   0  0  0  0  0  0  0  0  0  0  0  0
   14.9741    7.7706    7.4124 C   0  0  0  0  0  0  0  0  0  0  0  0
   14.9741   22.4866    7.4124 C   0  0  0  0  0  0  0  0  0  0  0  0
    1.6548    7.9090    7.3527 C   0  0  0  0  0  0  0  0  0  0  0  0
    1.6548   22.6250    7.3527 C   0  0  0  0  0  0  0  0  0  0  0  0
   16.3708    7.9090    7.3527 C   0  0  0  0  0  0  0  0  0  0  0  0
   16.3708   22.6250    7.3527 C   0  0  0  0  0  0  0  0  0  0  0  0
    2.4535    6.7948    7.3491 C   0  0  0  0  0  0  0  0  0  0  0  0
    2.4535   21.5108    7.3491 C   0  0  0  0  0  0  0  0  0  0  0  0
   17.1695    6.7948    7.3491 C   0  0  0  0  0  0  0  0  0  0  0  0
   17.1695   21.5108    7.3491 C   0  0  0  0  0  0  0  0  0  0  0  0
    3.9251    6.9697    7.4364 C   0  0  0  0  0  0  0  0  0  0  0  0
    3.9251   21.6857    7.4364 C   0  0  0  0  0  0  0  0  0  0  0  0
   18.6411    6.9697    7.4364 C   0  0  0  0  0  0  0  0  0  0  0  0
   18.6411   21.6857    7.4364 C   0  0  0  0  0  0  0  0  0  0  0  0
    1.8966    5.5003    7.3071 C   0  0  0  0  0  0  0  0  0  0  0  0
    1.8966   20.2163    7.3071 C   0  0  0  0  0  0  0  0  0  0  0  0
   16.6126    5.5003    7.3071 C   0  0  0  0  0  0  0  0  0  0  0  0
   16.6126   20.2163    7.3071 C   0  0  0  0  0  0  0  0  0  0  0  0
    0.5419    5.3469    7.2445 C   0  0  0  0  0  0  0  0  0  0  0  0
   29.9739    5.3469    7.2445 C   0  0  0  0  0  0  0  0  0  0  0  0
    0.5419   20.0629    7.2445 C   0  0  0  0  0  0  0  0  0  0  0  0
   29.9739   20.0629    7.2445 C   0  0  0  0  0  0  0  0  0  0  0  0
   15.2579    5.3469    7.2445 C   0  0  0  0  0  0  0  0  0  0  0  0
   15.2579   20.0629    7.2445 C   0  0  0  0  0  0  0  0  0  0  0  0
   14.4070    6.4704    7.3233 C   0  0  0  0  0  0  0  0  0  0  0  0
   14.4070   21.1864    7.3233 C   0  0  0  0  0  0  0  0  0  0  0  0
   -0.3090    6.4704    7.3233 C   0  0  0  0  0  0  0  0  0  0  0  0
   29.1230    6.4704    7.3233 C   0  0  0  0  0  0  0  0  0  0  0  0
   -0.3090   21.1864    7.3233 C   0  0  0  0  0  0  0  0  0  0  0  0
   29.1230   21.1864    7.3233 C   0  0  0  0  0  0  0  0  0  0  0  0
   13.0081    6.3455    7.3490 C   0  0  0  0  0  0  0  0  0  0  0  0
   13.0081   21.0615    7.3490 C   0  0  0  0  0  0  0  0  0  0  0  0
   27.7241    6.3455    7.3490 C   0  0  0  0  0  0  0  0  0  0  0  0
   27.7241   21.0615    7.3490 C   0  0  0  0  0  0  0  0  0  0  0  0
    7.2083   10.6365    7.5506 C   0  0  0  0  0  0  0  0  0  0  0  0
    7.2083   25.3525    7.5506 C   0  0  0  0  0  0  0  0  0  0  0  0
   21.9243   10.6365    7.5506 C   0  0  0  0  0  0  0  0  0  0  0  0
   21.9243   25.3525    7.5506 C   0  0  0  0  0  0  0  0  0  0  0  0
    7.0804   12.1106    7.5890 C   0  0  0  0  0  0  0  0  0  0  0  0
    7.0804   26.8266    7.5890 C   0  0  0  0  0  0  0  0  0  0  0  0
   21.7964   12.1106    7.5890 C   0  0  0  0  0  0  0  0  0  0  0  0
   21.7964   26.8266    7.5890 C   0  0  0  0  0  0  0  0  0  0  0  0
    5.7972   12.6815    7.4633 C   0  0  0  0  0  0  0  0  0  0  0  0
    5.7972   27.3975    7.4633 C   0  0  0  0  0  0  0  0  0  0  0  0
   20.5132   12.6815    7.4633 C   0  0  0  0  0  0  0  0  0  0  0  0
   20.5132   27.3975    7.4633 C   0  0  0  0  0  0  0  0  0  0  0  0
    5.6560   14.0365    7.4767 C   0  0  0  0  0  0  0  0  0  0  0  0
    5.6560   -0.6795    7.4767 C   0  0  0  0  0  0  0  0  0  0  0  0
    5.6560   28.7525    7.4767 C   0  0  0  0  0  0  0  0  0  0  0  0
   20.3720   14.0365    7.4767 C   0  0  0  0  0  0  0  0  0  0  0  0
   20.3720   -0.6795    7.4767 C   0  0  0  0  0  0  0  0  0  0  0  0
   20.3720   28.7525    7.4767 C   0  0  0  0  0  0  0  0  0  0  0  0
    6.7943    0.1539    7.5235 C   0  0  0  0  0  0  0  0  0  0  0  0
    6.7943   29.5859    7.5235 C   0  0  0  0  0  0  0  0  0  0  0  0
    6.7943   14.8699    7.5235 C   0  0  0  0  0  0  0  0  0  0  0  0
   21.5103    0.1539    7.5235 C   0  0  0  0  0  0  0  0  0  0  0  0
   21.5103   29.5859    7.5235 C   0  0  0  0  0  0  0  0  0  0  0  0
   21.5103   14.8699    7.5235 C   0  0  0  0  0  0  0  0  0  0  0  0
    6.6775    1.5507    7.4571 C   0  0  0  0  0  0  0  0  0  0  0  0
    6.6775   16.2667    7.4571 C   0  0  0  0  0  0  0  0  0  0  0  0
   21.3935    1.5507    7.4571 C   0  0  0  0  0  0  0  0  0  0  0  0
   21.3935   16.2667    7.4571 C   0  0  0  0  0  0  0  0  0  0  0  0
    7.8003    2.3292    7.3485 C   0  0  0  0  0  0  0  0  0  0  0  0
    7.8003   17.0452    7.3485 C   0  0  0  0  0  0  0  0  0  0  0  0
   22.5163    2.3292    7.3485 C   0  0  0  0  0  0  0  0  0  0  0  0
   22.5163   17.0452    7.3485 C   0  0  0  0  0  0  0  0  0  0  0  0
    7.6385    3.7917    7.2250 C   0  0  0  0  0  0  0  0  0  0  0  0
    7.6385   18.5077    7.2250 C   0  0  0  0  0  0  0  0  0  0  0  0
   22.3545    3.7917    7.2250 C   0  0  0  0  0  0  0  0  0  0  0  0
   22.3545   18.5077    7.2250 C   0  0  0  0  0  0  0  0  0  0  0  0
    9.0867    1.7567    7.3285 C   0  0  0  0  0  0  0  0  0  0  0  0
    9.0867   16.4727    7.3285 C   0  0  0  0  0  0  0  0  0  0  0  0
   23.8027    1.7567    7.3285 C   0  0  0  0  0  0  0  0  0  0  0  0
   23.8027   16.4727    7.3285 C   0  0  0  0  0  0  0  0  0  0  0  0
    9.2318    0.4099    7.4890 C   0  0  0  0  0  0  0  0  0  0  0  0
    9.2318   29.8419    7.4890 C   0  0  0  0  0  0  0  0  0  0  0  0
    9.2318   15.1259    7.4890 C   0  0  0  0  0  0  0  0  0  0  0  0
   23.9478    0.4099    7.4890 C   0  0  0  0  0  0  0  0  0  0  0  0
   23.9478   29.8419    7.4890 C   0  0  0  0  0  0  0  0  0  0  0  0
   23.9478   15.1259    7.4890 C   0  0  0  0  0  0  0  0  0  0  0  0
    8.0942   14.2934    7.5869 C   0  0  0  0  0  0  0  0  0  0  0  0
    8.0942   -0.4226    7.5869 C   0  0  0  0  0  0  0  0  0  0  0  0
    8.0942   29.0094    7.5869 C   0  0  0  0  0  0  0  0  0  0  0  0
   22.8102   14.2934    7.5869 C   0  0  0  0  0  0  0  0  0  0  0  0
   22.8102   -0.4226    7.5869 C   0  0  0  0  0  0  0  0  0  0  0  0
   22.8102   29.0094    7.5869 C   0  0  0  0  0  0  0  0  0  0  0  0
    8.2026   12.8948    7.6807 C   0  0  0  0  0  0  0  0  0  0  0  0
    8.2026   27.6108    7.6807 C   0  0  0  0  0  0  0  0  0  0  0  0
   22.9186   12.8948    7.6807 C   0  0  0  0  0  0  0  0  0  0  0  0
   22.9186   27.6108    7.6807 C   0  0  0  0  0  0  0  0  0  0  0  0
    7.4263    6.9220   10.8268 C   0  0  0  0  0  0  0  0  0  0  0  0
    7.4263   21.6380   10.8268 C   0  0  0  0  0  0  0  0  0  0  0  0
   22.1423    6.9220   10.8268 C   0  0  0  0  0  0  0  0  0  0  0  0
   22.1423   21.6380   10.8268 C   0  0  0  0  0  0  0  0  0  0  0  0
    7.5191    6.7648   12.2966 C   0  0  0  0  0  0  0  0  0  0  0  0
    7.5191   21.4808   12.2966 C   0  0  0  0  0  0  0  0  0  0  0  0
   22.2351    6.7648   12.2966 C   0  0  0  0  0  0  0  0  0  0  0  0
   22.2351   21.4808   12.2966 C   0  0  0  0  0  0  0  0  0  0  0  0
    7.4287    5.4799   12.8695 C   0  0  0  0  0  0  0  0  0  0  0  0
    7.4287   20.1959   12.8695 C   0  0  0  0  0  0  0  0  0  0  0  0
   22.1447    5.4799   12.8695 C   0  0  0  0  0  0  0  0  0  0  0  0
   22.1447   20.1959   12.8695 C   0  0  0  0  0  0  0  0  0  0  0  0
    7.4756    5.3321   -0.4903 C   0  0  0  0  0  0  0  0  0  0  0  0
    7.4756    5.3321   14.2257 C   0  0  0  0  0  0  0  0  0  0  0  0
    7.4756   20.0481   -0.4903 C   0  0  0  0  0  0  0  0  0  0  0  0
    7.4756   20.0481   14.2257 C   0  0  0  0  0  0  0  0  0  0  0  0
   22.1916    5.3321   -0.4903 C   0  0  0  0  0  0  0  0  0  0  0  0
   22.1916    5.3321   14.2257 C   0  0  0  0  0  0  0  0  0  0  0  0
   22.1916   20.0481   -0.4903 C   0  0  0  0  0  0  0  0  0  0  0  0
   22.1916   20.0481   14.2257 C   0  0  0  0  0  0  0  0  0  0  0  0
    7.5371    6.4602    0.3596 C   0  0  0  0  0  0  0  0  0  0  0  0
    7.5371    6.4602   15.0756 C   0  0  0  0  0  0  0  0  0  0  0  0
    7.5371   21.1762    0.3596 C   0  0  0  0  0  0  0  0  0  0  0  0
    7.5371   21.1762   15.0756 C   0  0  0  0  0  0  0  0  0  0  0  0
   22.2531    6.4602    0.3596 C   0  0  0  0  0  0  0  0  0  0  0  0
   22.2531    6.4602   15.0756 C   0  0  0  0  0  0  0  0  0  0  0  0
   22.2531   21.1762    0.3596 C   0  0  0  0  0  0  0  0  0  0  0  0
   22.2531   21.1762   15.0756 C   0  0  0  0  0  0  0  0  0  0  0  0
    7.5197    6.3522    1.7642 C   0  0  0  0  0  0  0  0  0  0  0  0
    7.5197   21.0682    1.7642 C   0  0  0  0  0  0  0  0  0  0  0  0
   22.2357    6.3522    1.7642 C   0  0  0  0  0  0  0  0  0  0  0  0
   22.2357   21.0682    1.7642 C   0  0  0  0  0  0  0  0  0  0  0  0
    7.4364    7.4833    2.5373 C   0  0  0  0  0  0  0  0  0  0  0  0
    7.4364   22.1993    2.5373 C   0  0  0  0  0  0  0  0  0  0  0  0
   22.1524    7.4833    2.5373 C   0  0  0  0  0  0  0  0  0  0  0  0
   22.1524   22.1993    2.5373 C   0  0  0  0  0  0  0  0  0  0  0  0
    7.3742    7.3721    4.0174 C   0  0  0  0  0  0  0  0  0  0  0  0
    7.3742   22.0881    4.0174 C   0  0  0  0  0  0  0  0  0  0  0  0
   22.0902    7.3721    4.0174 C   0  0  0  0  0  0  0  0  0  0  0  0
   22.0902   22.0881    4.0174 C   0  0  0  0  0  0  0  0  0  0  0  0
    7.4133    8.7677    1.9602 C   0  0  0  0  0  0  0  0  0  0  0  0
    7.4133   23.4837    1.9602 C   0  0  0  0  0  0  0  0  0  0  0  0
   22.1293    8.7677    1.9602 C   0  0  0  0  0  0  0  0  0  0  0  0
   22.1293   23.4837    1.9602 C   0  0  0  0  0  0  0  0  0  0  0  0
    7.5430    8.9027    0.6088 C   0  0  0  0  0  0  0  0  0  0  0  0
    7.5430   23.6187    0.6088 C   0  0  0  0  0  0  0  0  0  0  0  0
   22.2590    8.9027    0.6088 C   0  0  0  0  0  0  0  0  0  0  0  0
   22.2590   23.6187    0.6088 C   0  0  0  0  0  0  0  0  0  0  0  0
    7.5915    7.7591   -0.2196 C   0  0  0  0  0  0  0  0  0  0  0  0
    7.5915    7.7591   14.4964 C   0  0  0  0  0  0  0  0  0  0  0  0
    7.5915   22.4751   -0.2196 C   0  0  0  0  0  0  0  0  0  0  0  0
    7.5915   22.4751   14.4964 C   0  0  0  0  0  0  0  0  0  0  0  0
   22.3075    7.7591   -0.2196 C   0  0  0  0  0  0  0  0  0  0  0  0
   22.3075    7.7591   14.4964 C   0  0  0  0  0  0  0  0  0  0  0  0
   22.3075   22.4751   -0.2196 C   0  0  0  0  0  0  0  0  0  0  0  0
   22.3075   22.4751   14.4964 C   0  0  0  0  0  0  0  0  0  0  0  0
    7.6350    7.8752   13.0955 C   0  0  0  0  0  0  0  0  0  0  0  0
    7.6350   22.5912   13.0955 C   0  0  0  0  0  0  0  0  0  0  0  0
   22.3510    7.8752   13.0955 C   0  0  0  0  0  0  0  0  0  0  0  0
   22.3510   22.5912   13.0955 C   0  0  0  0  0  0  0  0  0  0  0  0
    1.5601   13.2680   12.9141 C   0  0  0  0  0  0  0  0  0  0  0  0
    1.5601   27.9840   12.9141 C   0  0  0  0  0  0  0  0  0  0  0  0
   16.2761   13.2680   12.9141 C   0  0  0  0  0  0  0  0  0  0  0  0
   16.2761   27.9840   12.9141 C   0  0  0  0  0  0  0  0  0  0  0  0
    3.0279   13.4618   12.8528 C   0  0  0  0  0  0  0  0  0  0  0  0
    3.0279   28.1778   12.8528 C   0  0  0  0  0  0  0  0  0  0  0  0
   17.7439   13.4618   12.8528 C   0  0  0  0  0  0  0  0  0  0  0  0
   17.7439   28.1778   12.8528 C   0  0  0  0  0  0  0  0  0  0  0  0
    3.5514    0.0475   12.9679 C   0  0  0  0  0  0  0  0  0  0  0  0
    3.5514   29.4795   12.9679 C   0  0  0  0  0  0  0  0  0  0  0  0
    3.5514   14.7635   12.9679 C   0  0  0  0  0  0  0  0  0  0  0  0
   18.2674    0.0475   12.9679 C   0  0  0  0  0  0  0  0  0  0  0  0
   18.2674   29.4795   12.9679 C   0  0  0  0  0  0  0  0  0  0  0  0
   18.2674   14.7635   12.9679 C   0  0  0  0  0  0  0  0  0  0  0  0
    4.8982    0.2413   12.8728 C   0  0  0  0  0  0  0  0  0  0  0  0
    4.8982   29.6733   12.8728 C   0  0  0  0  0  0  0  0  0  0  0  0
    4.8982   14.9573   12.8728 C   0  0  0  0  0  0  0  0  0  0  0  0
   19.6142    0.2413   12.8728 C   0  0  0  0  0  0  0  0  0  0  0  0
   19.6142   29.6733   12.8728 C   0  0  0  0  0  0  0  0  0  0  0  0
   19.6142   14.9573   12.8728 C   0  0  0  0  0  0  0  0  0  0  0  0
    5.7727   13.8544   12.7586 C   0  0  0  0  0  0  0  0  0  0  0  0
    5.7727   -0.8616   12.7586 C   0  0  0  0  0  0  0  0  0  0  0  0
    5.7727   28.5704   12.7586 C   0  0  0  0  0  0  0  0  0  0  0  0
   20.4887   13.8544   12.7586 C   0  0  0  0  0  0  0  0  0  0  0  0
   20.4887   -0.8616   12.7586 C   0  0  0  0  0  0  0  0  0  0  0  0
   20.4887   28.5704   12.7586 C   0  0  0  0  0  0  0  0  0  0  0  0
    7.1690   14.0146   12.7941 C   0  0  0  0  0  0  0  0  0  0  0  0
    7.1690   -0.7014   12.7941 C   0  0  0  0  0  0  0  0  0  0  0  0
    7.1690   28.7306   12.7941 C   0  0  0  0  0  0  0  0  0  0  0  0
   21.8850   14.0146   12.7941 C   0  0  0  0  0  0  0  0  0  0  0  0
   21.8850   -0.7014   12.7941 C   0  0  0  0  0  0  0  0  0  0  0  0
   21.8850   28.7306   12.7941 C   0  0  0  0  0  0  0  0  0  0  0  0
    7.9807   12.9106   12.8203 C   0  0  0  0  0  0  0  0  0  0  0  0
    7.9807   27.6266   12.8203 C   0  0  0  0  0  0  0  0  0  0  0  0
   22.6967   12.9106   12.8203 C   0  0  0  0  0  0  0  0  0  0  0  0
   22.6967   27.6266   12.8203 C   0  0  0  0  0  0  0  0  0  0  0  0
    9.4475   13.0531   12.9618 C   0  0  0  0  0  0  0  0  0  0  0  0
    9.4475   27.7691   12.9618 C   0  0  0  0  0  0  0  0  0  0  0  0
   24.1635   13.0531   12.9618 C   0  0  0  0  0  0  0  0  0  0  0  0
   24.1635   27.7691   12.9618 C   0  0  0  0  0  0  0  0  0  0  0  0
    7.4531   11.6112   12.7040 C   0  0  0  0  0  0  0  0  0  0  0  0
    7.4531   26.3272   12.7040 C   0  0  0  0  0  0  0  0  0  0  0  0
   22.1691   11.6112   12.7040 C   0  0  0  0  0  0  0  0  0  0  0  0
   22.1691   26.3272   12.7040 C   0  0  0  0  0  0  0  0  0  0  0  0
    6.1065   11.4324   12.5931 C   0  0  0  0  0  0  0  0  0  0  0  0
    6.1065   26.1484   12.5931 C   0  0  0  0  0  0  0  0  0  0  0  0
   20.8225   11.4324   12.5931 C   0  0  0  0  0  0  0  0  0  0  0  0
   20.8225   26.1484   12.5931 C   0  0  0  0  0  0  0  0  0  0  0  0
    5.2367   12.5410   12.6620 C   0  0  0  0  0  0  0  0  0  0  0  0
    5.2367   27.2570   12.6620 C   0  0  0  0  0  0  0  0  0  0  0  0
   19.9527   12.5410   12.6620 C   0  0  0  0  0  0  0  0  0  0  0  0
   19.9527   27.2570   12.6620 C   0  0  0  0  0  0  0  0  0  0  0  0
    3.8416   12.3766   12.6657 C   0  0  0  0  0  0  0  0  0  0  0  0
    3.8416   27.0926   12.6657 C   0  0  0  0  0  0  0  0  0  0  0  0
   18.5576   12.3766   12.6657 C   0  0  0  0  0  0  0  0  0  0  0  0
   18.5576   27.0926   12.6657 C   0  0  0  0  0  0  0  0  0  0  0  0
   12.8091    1.8084   12.9481 C   0  0  0  0  0  0  0  0  0  0  0  0
   12.8091   16.5244   12.9481 C   0  0  0  0  0  0  0  0  0  0  0  0
   27.5251    1.8084   12.9481 C   0  0  0  0  0  0  0  0  0  0  0  0
   27.5251   16.5244   12.9481 C   0  0  0  0  0  0  0  0  0  0  0  0
   12.6401    3.2717   13.0629 C   0  0  0  0  0  0  0  0  0  0  0  0
   12.6401   17.9877   13.0629 C   0  0  0  0  0  0  0  0  0  0  0  0
   27.3561    3.2717   13.0629 C   0  0  0  0  0  0  0  0  0  0  0  0
   27.3561   17.9877   13.0629 C   0  0  0  0  0  0  0  0  0  0  0  0
   11.3454    3.8182   12.9544 C   0  0  0  0  0  0  0  0  0  0  0  0
   11.3454   18.5342   12.9544 C   0  0  0  0  0  0  0  0  0  0  0  0
   26.0614    3.8182   12.9544 C   0  0  0  0  0  0  0  0  0  0  0  0
   26.0614   18.5342   12.9544 C   0  0  0  0  0  0  0  0  0  0  0  0
   11.1772    5.1703   12.9787 C   0  0  0  0  0  0  0  0  0  0  0  0
   11.1772   19.8863   12.9787 C   0  0  0  0  0  0  0  0  0  0  0  0
   25.8932    5.1703   12.9787 C   0  0  0  0  0  0  0  0  0  0  0  0
   25.8932   19.8863   12.9787 C   0  0  0  0  0  0  0  0  0  0  0  0
   12.3017    6.0248   13.0123 C   0  0  0  0  0  0  0  0  0  0  0  0
   12.3017   20.7408   13.0123 C   0  0  0  0  0  0  0  0  0  0  0  0
   27.0177    6.0248   13.0123 C   0  0  0  0  0  0  0  0  0  0  0  0
   27.0177   20.7408   13.0123 C   0  0  0  0  0  0  0  0  0  0  0  0
   12.1616    7.4197   12.9268 C   0  0  0  0  0  0  0  0  0  0  0  0
   12.1616   22.1357   12.9268 C   0  0  0  0  0  0  0  0  0  0  0  0
   26.8776    7.4197   12.9268 C   0  0  0  0  0  0  0  0  0  0  0  0
   26.8776   22.1357   12.9268 C   0  0  0  0  0  0  0  0  0  0  0  0
   13.2728    8.2159   12.8077 C   0  0  0  0  0  0  0  0  0  0  0  0
   13.2728   22.9319   12.8077 C   0  0  0  0  0  0  0  0  0  0  0  0
   27.9888    8.2159   12.8077 C   0  0  0  0  0  0  0  0  0  0  0  0
   27.9888   22.9319   12.8077 C   0  0  0  0  0  0  0  0  0  0  0  0
   13.1023    9.6793   12.6687 C   0  0  0  0  0  0  0  0  0  0  0  0
   13.1023   24.3953   12.6687 C   0  0  0  0  0  0  0  0  0  0  0  0
   27.8183    9.6793   12.6687 C   0  0  0  0  0  0  0  0  0  0  0  0
   27.8183   24.3953   12.6687 C   0  0  0  0  0  0  0  0  0  0  0  0
   14.5679    7.6608   12.7969 C   0  0  0  0  0  0  0  0  0  0  0  0
   14.5679   22.3768   12.7969 C   0  0  0  0  0  0  0  0  0  0  0  0
   -0.1481    7.6608   12.7969 C   0  0  0  0  0  0  0  0  0  0  0  0
   29.2839    7.6608   12.7969 C   0  0  0  0  0  0  0  0  0  0  0  0
   -0.1481   22.3768   12.7969 C   0  0  0  0  0  0  0  0  0  0  0  0
   29.2839   22.3768   12.7969 C   0  0  0  0  0  0  0  0  0  0  0  0
    0.0179    6.3180   12.9691 C   0  0  0  0  0  0  0  0  0  0  0  0
   29.4499    6.3180   12.9691 C   0  0  0  0  0  0  0  0  0  0  0  0
    0.0179   21.0340   12.9691 C   0  0  0  0  0  0  0  0  0  0  0  0
   29.4499   21.0340   12.9691 C   0  0  0  0  0  0  0  0  0  0  0  0
   14.7339    6.3180   12.9691 C   0  0  0  0  0  0  0  0  0  0  0  0
   14.7339   21.0340   12.9691 C   0  0  0  0  0  0  0  0  0  0  0  0
   13.6107    5.4687   13.0769 C   0  0  0  0  0  0  0  0  0  0  0  0
   13.6107   20.1847   13.0769 C   0  0  0  0  0  0  0  0  0  0  0  0
   -1.1053    5.4687   13.0769 C   0  0  0  0  0  0  0  0  0  0  0  0
   28.3267    5.4687   13.0769 C   0  0  0  0  0  0  0  0  0  0  0  0
   -1.1053   20.1847   13.0769 C   0  0  0  0  0  0  0  0  0  0  0  0
   28.3267   20.1847   13.0769 C   0  0  0  0  0  0  0  0  0  0  0  0
   13.7472    4.0725   13.1678 C   0  0  0  0  0  0  0  0  0  0  0  0
   13.7472   18.7885   13.1678 C   0  0  0  0  0  0  0  0  0  0  0  0
   -0.9688    4.0725   13.1678 C   0  0  0  0  0  0  0  0  0  0  0  0
   28.4632    4.0725   13.1678 C   0  0  0  0  0  0  0  0  0  0  0  0
   -0.9688   18.7885   13.1678 C   0  0  0  0  0  0  0  0  0  0  0  0
   28.4632   18.7885   13.1678 C   0  0  0  0  0  0  0  0  0  0  0  0
   12.8516   12.9111    1.5529 C   0  0  0  0  0  0  0  0  0  0  0  0
   12.8516   27.6271    1.5529 C   0  0  0  0  0  0  0  0  0  0  0  0
   27.5676   12.9111    1.5529 C   0  0  0  0  0  0  0  0  0  0  0  0
   27.5676   27.6271    1.5529 C   0  0  0  0  0  0  0  0  0  0  0  0
   12.8814   12.8130    3.0344 C   0  0  0  0  0  0  0  0  0  0  0  0
   12.8814   27.5290    3.0344 C   0  0  0  0  0  0  0  0  0  0  0  0
   27.5974   12.8130    3.0344 C   0  0  0  0  0  0  0  0  0  0  0  0
   27.5974   27.5290    3.0344 C   0  0  0  0  0  0  0  0  0  0  0  0
   12.8128   11.5318    3.6203 C   0  0  0  0  0  0  0  0  0  0  0  0
   12.8128   26.2478    3.6203 C   0  0  0  0  0  0  0  0  0  0  0  0
   27.5288   11.5318    3.6203 C   0  0  0  0  0  0  0  0  0  0  0  0
   27.5288   26.2478    3.6203 C   0  0  0  0  0  0  0  0  0  0  0  0
   12.8772   11.3975    4.9754 C   0  0  0  0  0  0  0  0  0  0  0  0
   12.8772   26.1135    4.9754 C   0  0  0  0  0  0  0  0  0  0  0  0
   27.5932   11.3975    4.9754 C   0  0  0  0  0  0  0  0  0  0  0  0
   27.5932   26.1135    4.9754 C   0  0  0  0  0  0  0  0  0  0  0  0
   12.9450   12.5404    5.8019 C   0  0  0  0  0  0  0  0  0  0  0  0
   12.9450   27.2564    5.8019 C   0  0  0  0  0  0  0  0  0  0  0  0
   27.6610   12.5404    5.8019 C   0  0  0  0  0  0  0  0  0  0  0  0
   27.6610   27.2564    5.8019 C   0  0  0  0  0  0  0  0  0  0  0  0
   12.9749   12.4247    7.2026 C   0  0  0  0  0  0  0  0  0  0  0  0
   12.9749   27.1407    7.2026 C   0  0  0  0  0  0  0  0  0  0  0  0
   27.6909   12.4247    7.2026 C   0  0  0  0  0  0  0  0  0  0  0  0
   27.6909   27.1407    7.2026 C   0  0  0  0  0  0  0  0  0  0  0  0
   12.9133   13.5397    7.9957 C   0  0  0  0  0  0  0  0  0  0  0  0
   12.9133   -1.1763    7.9957 C   0  0  0  0  0  0  0  0  0  0  0  0
   12.9133   28.2557    7.9957 C   0  0  0  0  0  0  0  0  0  0  0  0
   27.6293   13.5397    7.9957 C   0  0  0  0  0  0  0  0  0  0  0  0
   27.6293   -1.1763    7.9957 C   0  0  0  0  0  0  0  0  0  0  0  0
   27.6293   28.2557    7.9957 C   0  0  0  0  0  0  0  0  0  0  0  0
   12.8290   13.3450    9.4647 C   0  0  0  0  0  0  0  0  0  0  0  0
   12.8290   28.0610    9.4647 C   0  0  0  0  0  0  0  0  0  0  0  0
   27.5450   13.3450    9.4647 C   0  0  0  0  0  0  0  0  0  0  0  0
   27.5450   28.0610    9.4647 C   0  0  0  0  0  0  0  0  0  0  0  0
   12.8739    0.1103    7.4255 C   0  0  0  0  0  0  0  0  0  0  0  0
   12.8739   29.5423    7.4255 C   0  0  0  0  0  0  0  0  0  0  0  0
   12.8739   14.8263    7.4255 C   0  0  0  0  0  0  0  0  0  0  0  0
   27.5899    0.1103    7.4255 C   0  0  0  0  0  0  0  0  0  0  0  0
   27.5899   29.5423    7.4255 C   0  0  0  0  0  0  0  0  0  0  0  0
   27.5899   14.8263    7.4255 C   0  0  0  0  0  0  0  0  0  0  0  0
   12.9357    0.2525    6.0675 C   0  0  0  0  0  0  0  0  0  0  0  0
   12.9357   29.6845    6.0675 C   0  0  0  0  0  0  0  0  0  0  0  0
   12.9357   14.9685    6.0675 C   0  0  0  0  0  0  0  0  0  0  0  0
   27.6517    0.2525    6.0675 C   0  0  0  0  0  0  0  0  0  0  0  0
   27.6517   29.6845    6.0675 C   0  0  0  0  0  0  0  0  0  0  0  0
   27.6517   14.9685    6.0675 C   0  0  0  0  0  0  0  0  0  0  0  0
   12.9564   13.8378    5.2186 C   0  0  0  0  0  0  0  0  0  0  0  0
   12.9564   -0.8782    5.2186 C   0  0  0  0  0  0  0  0  0  0  0  0
   12.9564   28.5538    5.2186 C   0  0  0  0  0  0  0  0  0  0  0  0
   27.6724   13.8378    5.2186 C   0  0  0  0  0  0  0  0  0  0  0  0
   27.6724   -0.8782    5.2186 C   0  0  0  0  0  0  0  0  0  0  0  0
   27.6724   28.5538    5.2186 C   0  0  0  0  0  0  0  0  0  0  0  0
   12.9655   13.9440    3.8130 C   0  0  0  0  0  0  0  0  0  0  0  0
   12.9655   -0.7720    3.8130 C   0  0  0  0  0  0  0  0  0  0  0  0
   12.9655   28.6600    3.8130 C   0  0  0  0  0  0  0  0  0  0  0  0
   27.6815   13.9440    3.8130 C   0  0  0  0  0  0  0  0  0  0  0  0
   27.6815   -0.7720    3.8130 C   0  0  0  0  0  0  0  0  0  0  0  0
   27.6815   28.6600    3.8130 C   0  0  0  0  0  0  0  0  0  0  0  0
    7.3666    7.2162    7.4167 O   0  0  0  0  0  0  0  0  0  0  0  0
    7.3666   21.9322    7.4167 O   0  0  0  0  0  0  0  0  0  0  0  0
   22.0826    7.2162    7.4167 O   0  0  0  0  0  0  0  0  0  0  0  0
   22.0826   21.9322    7.4167 O   0  0  0  0  0  0  0  0  0  0  0  0
   10.2595    6.5905    6.7146 O   0  0  0  0  0  0  0  0  0  0  0  0
   10.2595   21.3065    6.7146 O   0  0  0  0  0  0  0  0  0  0  0  0
   24.9755    6.5905    6.7146 O   0  0  0  0  0  0  0  0  0  0  0  0
   24.9755   21.3065    6.7146 O   0  0  0  0  0  0  0  0  0  0  0  0
   10.1309    7.9820    8.4586 O   0  0  0  0  0  0  0  0  0  0  0  0
   10.1309   22.6980    8.4586 O   0  0  0  0  0  0  0  0  0  0  0  0
   24.8469    7.9820    8.4586 O   0  0  0  0  0  0  0  0  0  0  0  0
   24.8469   22.6980    8.4586 O   0  0  0  0  0  0  0  0  0  0  0  0
    4.4425    7.8830    6.7494 O   0  0  0  0  0  0  0  0  0  0  0  0
    4.4425   22.5990    6.7494 O   0  0  0  0  0  0  0  0  0  0  0  0
   19.1585    7.8830    6.7494 O   0  0  0  0  0  0  0  0  0  0  0  0
   19.1585   22.5990    6.7494 O   0  0  0  0  0  0  0  0  0  0  0  0
    4.5486    6.2054    8.2178 O   0  0  0  0  0  0  0  0  0  0  0  0
    4.5486   20.9214    8.2178 O   0  0  0  0  0  0  0  0  0  0  0  0
   19.2646    6.2054    8.2178 O   0  0  0  0  0  0  0  0  0  0  0  0
   19.2646   20.9214    8.2178 O   0  0  0  0  0  0  0  0  0  0  0  0
    6.3762   10.0196    6.8400 O   0  0  0  0  0  0  0  0  0  0  0  0
    6.3762   24.7356    6.8400 O   0  0  0  0  0  0  0  0  0  0  0  0
   21.0922   10.0196    6.8400 O   0  0  0  0  0  0  0  0  0  0  0  0
   21.0922   24.7356    6.8400 O   0  0  0  0  0  0  0  0  0  0  0  0
    8.1385   10.1002    8.2076 O   0  0  0  0  0  0  0  0  0  0  0  0
    8.1385   24.8162    8.2076 O   0  0  0  0  0  0  0  0  0  0  0  0
   22.8545   10.1002    8.2076 O   0  0  0  0  0  0  0  0  0  0  0  0
   22.8545   24.8162    8.2076 O   0  0  0  0  0  0  0  0  0  0  0  0
    8.4847    4.4206    6.5429 O   0  0  0  0  0  0  0  0  0  0  0  0
    8.4847   19.1366    6.5429 O   0  0  0  0  0  0  0  0  0  0  0  0
   23.2007    4.4206    6.5429 O   0  0  0  0  0  0  0  0  0  0  0  0
   23.2007   19.1366    6.5429 O   0  0  0  0  0  0  0  0  0  0  0  0
    6.6451    4.3133    7.7972 O   0  0  0  0  0  0  0  0  0  0  0  0
    6.6451   19.0293    7.7972 O   0  0  0  0  0  0  0  0  0  0  0  0
   21.3611    4.3133    7.7972 O   0  0  0  0  0  0  0  0  0  0  0  0
   21.3611   19.0293    7.7972 O   0  0  0  0  0  0  0  0  0  0  0  0
    6.8376    6.0130   10.1841 O   0  0  0  0  0  0  0  0  0  0  0  0
    6.8376   20.7290   10.1841 O   0  0  0  0  0  0  0  0  0  0  0  0
   21.5536    6.0130   10.1841 O   0  0  0  0  0  0  0  0  0  0  0  0
   21.5536   20.7290   10.1841 O   0  0  0  0  0  0  0  0  0  0  0  0
    7.9067    7.9692   10.3204 O   0  0  0  0  0  0  0  0  0  0  0  0
    7.9067   22.6852   10.3204 O   0  0  0  0  0  0  0  0  0  0  0  0
   22.6227    7.9692   10.3204 O   0  0  0  0  0  0  0  0  0  0  0  0
   22.6227   22.6852   10.3204 O   0  0  0  0  0  0  0  0  0  0  0  0
    6.5147    8.0629    4.6181 O   0  0  0  0  0  0  0  0  0  0  0  0
    6.5147   22.7789    4.6181 O   0  0  0  0  0  0  0  0  0  0  0  0
   21.2307    8.0629    4.6181 O   0  0  0  0  0  0  0  0  0  0  0  0
   21.2307   22.7789    4.6181 O   0  0  0  0  0  0  0  0  0  0  0  0
    8.1864    6.5857    4.5633 O   0  0  0  0  0  0  0  0  0  0  0  0
    8.1864   21.3017    4.5633 O   0  0  0  0  0  0  0  0  0  0  0  0
   22.9024    6.5857    4.5633 O   0  0  0  0  0  0  0  0  0  0  0  0
   22.9024   21.3017    4.5633 O   0  0  0  0  0  0  0  0  0  0  0  0
   12.8749   13.0976   12.8515 O   0  0  0  0  0  0  0  0  0  0  0  0
   12.8749   27.8136   12.8515 O   0  0  0  0  0  0  0  0  0  0  0  0
   27.5909   13.0976   12.8515 O   0  0  0  0  0  0  0  0  0  0  0  0
   27.5909   27.8136   12.8515 O   0  0  0  0  0  0  0  0  0  0  0  0
    1.0422   12.5512   12.0219 O   0  0  0  0  0  0  0  0  0  0  0  0
   30.4742   12.5512   12.0219 O   0  0  0  0  0  0  0  0  0  0  0  0
    1.0422   27.2672   12.0219 O   0  0  0  0  0  0  0  0  0  0  0  0
   30.4742   27.2672   12.0219 O   0  0  0  0  0  0  0  0  0  0  0  0
   15.7582   12.5512   12.0219 O   0  0  0  0  0  0  0  0  0  0  0  0
   15.7582   27.2672   12.0219 O   0  0  0  0  0  0  0  0  0  0  0  0
    0.9391   13.8397   13.8423 O   0  0  0  0  0  0  0  0  0  0  0  0
   30.3711   13.8397   13.8423 O   0  0  0  0  0  0  0  0  0  0  0  0
    0.9391   -0.8763   13.8423 O   0  0  0  0  0  0  0  0  0  0  0  0
    0.9391   28.5557   13.8423 O   0  0  0  0  0  0  0  0  0  0  0  0
   30.3711   -0.8763   13.8423 O   0  0  0  0  0  0  0  0  0  0  0  0
   30.3711   28.5557   13.8423 O   0  0  0  0  0  0  0  0  0  0  0  0
   15.6551   13.8397   13.8423 O   0  0  0  0  0  0  0  0  0  0  0  0
   15.6551   -0.8763   13.8423 O   0  0  0  0  0  0  0  0  0  0  0  0
   15.6551   28.5557   13.8423 O   0  0  0  0  0  0  0  0  0  0  0  0
    9.9885   14.0220   12.3725 O   0  0  0  0  0  0  0  0  0  0  0  0
    9.9885   -0.6940   12.3725 O   0  0  0  0  0  0  0  0  0  0  0  0
    9.9885   28.7380   12.3725 O   0  0  0  0  0  0  0  0  0  0  0  0
   24.7045   14.0220   12.3725 O   0  0  0  0  0  0  0  0  0  0  0  0
   24.7045   -0.6940   12.3725 O   0  0  0  0  0  0  0  0  0  0  0  0
   24.7045   28.7380   12.3725 O   0  0  0  0  0  0  0  0  0  0  0  0
   10.0475   12.1992   13.6615 O   0  0  0  0  0  0  0  0  0  0  0  0
   10.0475   26.9152   13.6615 O   0  0  0  0  0  0  0  0  0  0  0  0
   24.7635   12.1992   13.6615 O   0  0  0  0  0  0  0  0  0  0  0  0
   24.7635   26.9152   13.6615 O   0  0  0  0  0  0  0  0  0  0  0  0
   12.0359    1.2268   12.1448 O   0  0  0  0  0  0  0  0  0  0  0  0
   12.0359   15.9428   12.1448 O   0  0  0  0  0  0  0  0  0  0  0  0
   26.7519    1.2268   12.1448 O   0  0  0  0  0  0  0  0  0  0  0  0
   26.7519   15.9428   12.1448 O   0  0  0  0  0  0  0  0  0  0  0  0
   13.7245    1.2502   13.6024 O   0  0  0  0  0  0  0  0  0  0  0  0
   13.7245   15.9662   13.6024 O   0  0  0  0  0  0  0  0  0  0  0  0
   -0.9915    1.2502   13.6024 O   0  0  0  0  0  0  0  0  0  0  0  0
   28.4405    1.2502   13.6024 O   0  0  0  0  0  0  0  0  0  0  0  0
   -0.9915   15.9662   13.6024 O   0  0  0  0  0  0  0  0  0  0  0  0
   28.4405   15.9662   13.6024 O   0  0  0  0  0  0  0  0  0  0  0  0
   13.9610   10.3053   11.9947 O   0  0  0  0  0  0  0  0  0  0  0  0
   13.9610   25.0213   11.9947 O   0  0  0  0  0  0  0  0  0  0  0  0
   -0.7550   10.3053   11.9947 O   0  0  0  0  0  0  0  0  0  0  0  0
   28.6770   10.3053   11.9947 O   0  0  0  0  0  0  0  0  0  0  0  0
   -0.7550   25.0213   11.9947 O   0  0  0  0  0  0  0  0  0  0  0  0
   28.6770   25.0213   11.9947 O   0  0  0  0  0  0  0  0  0  0  0  0
   12.1048   10.2035   13.2269 O   0  0  0  0  0  0  0  0  0  0  0  0
   12.1048   24.9195   13.2269 O   0  0  0  0  0  0  0  0  0  0  0  0
   26.8208   10.2035   13.2269 O   0  0  0  0  0  0  0  0  0  0  0  0
   26.8208   24.9195   13.2269 O   0  0  0  0  0  0  0  0  0  0  0  0
   12.3173   11.9676    0.9117 O   0  0  0  0  0  0  0  0  0  0  0  0
   12.3173   26.6836    0.9117 O   0  0  0  0  0  0  0  0  0  0  0  0
   27.0333   11.9676    0.9117 O   0  0  0  0  0  0  0  0  0  0  0  0
   27.0333   26.6836    0.9117 O   0  0  0  0  0  0  0  0  0  0  0  0
   13.3552   13.9366    1.0266 O   0  0  0  0  0  0  0  0  0  0  0  0
   13.3552   28.6526    1.0266 O   0  0  0  0  0  0  0  0  0  0  0  0
   28.0712   13.9366    1.0266 O   0  0  0  0  0  0  0  0  0  0  0  0
   28.0712   28.6526    1.0266 O   0  0  0  0  0  0  0  0  0  0  0  0
   11.9219   13.9641   10.0733 O   0  0  0  0  0  0  0  0  0  0  0  0
   11.9219   -0.7519   10.0733 O   0  0  0  0  0  0  0  0  0  0  0  0
   11.9219   28.6801   10.0733 O   0  0  0  0  0  0  0  0  0  0  0  0
   26.6379   13.9641   10.0733 O   0  0  0  0  0  0  0  0  0  0  0  0
   26.6379   -0.7519   10.0733 O   0  0  0  0  0  0  0  0  0  0  0  0
   26.6379   28.6801   10.0733 O   0  0  0  0  0  0  0  0  0  0  0  0
   13.6406   12.5353    9.9774 O   0  0  0  0  0  0  0  0  0  0  0  0
   13.6406   27.2513    9.9774 O   0  0  0  0  0  0  0  0  0  0  0  0
   -1.0754   12.5353    9.9774 O   0  0  0  0  0  0  0  0  0  0  0  0
   28.3566   12.5353    9.9774 O   0  0  0  0  0  0  0  0  0  0  0  0
   -1.0754   27.2513    9.9774 O   0  0  0  0  0  0  0  0  0  0  0  0
   28.3566   27.2513    9.9774 O   0  0  0  0  0  0  0  0  0  0  0  0
  1554  1  0  0  0  0
  1558  1  0  0  0  0
  1582  1  0  0  0  0
  1602  1  0  0  0  0
  2555  1  0  0  0  0
  2559  1  0  0  0  0
  2583  1  0  0  0  0
  2603  1  0  0  0  0
  3556  1  0  0  0  0
  3560  1  0  0  0  0
  3584  1  0  0  0  0
  3604  1  0  0  0  0
  4557  1  0  0  0  0
  4561  1  0  0  0  0
  4585  1  0  0  0  0
  4605  1  0  0  0  0
  5554  1  0  0  0  0
  5566  1  0  0  0  0
  5574  1  0  0  0  0
  5598  1  0  0  0  0
  6555  1  0  0  0  0
  6567  1  0  0  0  0
  6575  1  0  0  0  0
  6599  1  0  0  0  0
  7556  1  0  0  0  0
  7568  1  0  0  0  0
  7576  1  0  0  0  0
  7600  1  0  0  0  0
  8557  1  0  0  0  0
  8569  1  0  0  0  0
  8577  1  0  0  0  0
  8601  1  0  0  0  0
  9554  1  0  0  0  0
  9570  1  0  0  0  0
  9586  1  0  0  0  0
  9590  1  0  0  0  0
 10555  1  0  0  0  0
 10571  1  0  0  0  0
 10587  1  0  0  0  0
 10591  1  0  0  0  0
 11556  1  0  0  0  0
 11572  1  0  0  0  0
 11588  1  0  0  0  0
 11592  1  0  0  0  0
 12557  1  0  0  0  0
 12573  1  0  0  0  0
 12589  1  0  0  0  0
 12593  1  0  0  0  0
 13554  1  0  0  0  0
 13562  1  0  0  0  0
 13578  1  0  0  0  0
 13594  1  0  0  0  0
 14555  1  0  0  0  0
 14563  1  0  0  0  0
 14579  1  0  0  0  0
 14595  1  0  0  0  0
 15556  1  0  0  0  0
 15564  1  0  0  0  0
 15580  1  0  0  0  0
 15596  1  0  0  0  0
 16557  1  0  0  0  0
 16565  1  0  0  0  0
 16581  1  0  0  0  0
 16597  1  0  0  0  0
 17606  1  0  0  0  0
 17614  1  0  0  0  0
 17645  1  0  0  0  0
 17669  1  0  0  0  0
 18607  1  0  0  0  0
 18615  1  0  0  0  0
 18646  1  0  0  0  0
 18670  1  0  0  0  0
 19610  1  0  0  0  0
 19647  1  0  0  0  0
 19671  1  0  0  0  0
 20608  1  0  0  0  0
 20611  1  0  0  0  0
 20648  1  0  0  0  0
 20672  1  0  0  0  0
 21612  1  0  0  0  0
 21649  1  0  0  0  0
 21673  1  0  0  0  0
 22609  1  0  0  0  0
 22613  1  0  0  0  0
 22650  1  0  0  0  0
 22674  1  0  0  0  0
 23606  1  0  0  0  0
 23625  1  0  0  0  0
 23636  1  0  0  0  0
 23663  1  0  0  0  0
 24626  1  0  0  0  0
 24635  1  0  0  0  0
 24664  1  0  0  0  0
 25607  1  0  0  0  0
 25627  1  0  0  0  0
 25665  1  0  0  0  0
 26608  1  0  0  0  0
 26628  1  0  0  0  0
 26638  1  0  0  0  0
 26666  1  0  0  0  0
 27629  1  0  0  0  0
 27637  1  0  0  0  0
 27667  1  0  0  0  0
 28609  1  0  0  0  0
 28630  1  0  0  0  0
 28668  1  0  0  0  0
 29606  1  0  0  0  0
 29631  1  0  0  0  0
 29651  1  0  0  0  0
 30607  1  0  0  0  0
 30632  1  0  0  0  0
 30652  1  0  0  0  0
 31608  1  0  0  0  0
 31633  1  0  0  0  0
 31653  1  0  0  0  0
 32609  1  0  0  0  0
 32634  1  0  0  0  0
 32654  1  0  0  0  0
 33606  1  0  0  0  0
 33622  1  0  0  0  0
 33640  1  0  0  0  0
 34623  1  0  0  0  0
 34639  1  0  0  0  0
 35607  1  0  0  0  0
 35624  1  0  0  0  0
 36616  1  0  0  0  0
 36643  1  0  0  0  0
 37608  1  0  0  0  0
 37617  1  0  0  0  0
 37644  1  0  0  0  0
 38618  1  0  0  0  0
 38641  1  0  0  0  0
 39619  1  0  0  0  0
 40620  1  0  0  0  0
 40642  1  0  0  0  0
 41609  1  0  0  0  0
 41621  1  0  0  0  0
 42220  1  0  0  0  0
 43221  1  0  0  0  0
 44222  1  0  0  0  0
 45223  1  0  0  0  0
 46224  1  0  0  0  0
 47225  1  0  0  0  0
 48226  1  0  0  0  0
 49227  1  0  0  0  0
 50228  1  0  0  0  0
 51229  1  0  0  0  0
 52236  1  0  0  0  0
 53237  1  0  0  0  0
 54238  1  0  0  0  0
 55239  1  0  0  0  0
 56248  1  0  0  0  0
 57249  1  0  0  0  0
 58250  1  0  0  0  0
 59251  1  0  0  0  0
 60252  1  0  0  0  0
 61253  1  0  0  0  0
 62254  1  0  0  0  0
 63255  1  0  0  0  0
 64256  1  0  0  0  0
 65257  1  0  0  0  0
 66264  1  0  0  0  0
 67265  1  0  0  0  0
 68266  1  0  0  0  0
 69267  1  0  0  0  0
 70276  1  0  0  0  0
 71277  1  0  0  0  0
 72278  1  0  0  0  0
 73279  1  0  0  0  0
 74280  1  0  0  0  0
 75281  1  0  0  0  0
 76282  1  0  0  0  0
 77283  1  0  0  0  0
 78284  1  0  0  0  0
 79285  1  0  0  0  0
 80292  1  0  0  0  0
 81293  1  0  0  0  0
 82294  1  0  0  0  0
 83295  1  0  0  0  0
 84304  1  0  0  0  0
 85305  1  0  0  0  0
 86306  1  0  0  0  0
 87307  1  0  0  0  0
 88310  1  0  0  0  0
 89308  1  0  0  0  0
 90309  1  0  0  0  0
 91313  1  0  0  0  0
 92311  1  0  0  0  0
 93312  1  0  0  0  0
 94320  1  0  0  0  0
 95321  1  0  0  0  0
 96322  1  0  0  0  0
 97323  1  0  0  0  0
 98332  1  0  0  0  0
 99333  1  0  0  0  0
100334  1  0  0  0  0
101335  1  0  0  0  0
102336  1  0  0  0  0
103337  1  0  0  0  0
104338  1  0  0  0  0
105339  1  0  0  0  0
106340  1  0  0  0  0
107341  1  0  0  0  0
108342  1  0  0  0  0
109343  1  0  0  0  0
110352  1  0  0  0  0
111353  1  0  0  0  0
112354  1  0  0  0  0
113355  1  0  0  0  0
114364  1  0  0  0  0
115365  1  0  0  0  0
116366  1  0  0  0  0
117367  1  0  0  0  0
118368  1  0  0  0  0
119369  1  0  0  0  0
120370  1  0  0  0  0
121371  1  0  0  0  0
122380  1  0  0  0  0
123381  1  0  0  0  0
124382  1  0  0  0  0
125383  1  0  0  0  0
126392  1  0  0  0  0
127393  1  0  0  0  0
128394  1  0  0  0  0
129395  1  0  0  0  0
130396  1  0  0  0  0
131397  1  0  0  0  0
132398  1  0  0  0  0
133400  1  0  0  0  0
134401  1  0  0  0  0
135403  1  0  0  0  0
136411  1  0  0  0  0
137412  1  0  0  0  0
138410  1  0  0  0  0
139414  1  0  0  0  0
140415  1  0  0  0  0
141413  1  0  0  0  0
142424  1  0  0  0  0
143425  1  0  0  0  0
144426  1  0  0  0  0
145427  1  0  0  0  0
146428  1  0  0  0  0
147429  1  0  0  0  0
148430  1  0  0  0  0
149431  1  0  0  0  0
150436  1  0  0  0  0
151437  1  0  0  0  0
152438  1  0  0  0  0
153439  1  0  0  0  0
154448  1  0  0  0  0
155449  1  0  0  0  0
156450  1  0  0  0  0
157451  1  0  0  0  0
158452  1  0  0  0  0
159453  1  0  0  0  0
160454  1  0  0  0  0
161455  1  0  0  0  0
162460  1  0  0  0  0
163461  1  0  0  0  0
164462  1  0  0  0  0
165463  1  0  0  0  0
166474  1  0  0  0  0
167475  1  0  0  0  0
168476  1  0  0  0  0
169477  1  0  0  0  0
170472  1  0  0  0  0
171473  1  0  0  0  0
172478  1  0  0  0  0
173479  1  0  0  0  0
174480  1  0  0  0  0
175481  1  0  0  0  0
176482  1  0  0  0  0
177483  1  0  0  0  0
178492  1  0  0  0  0
179493  1  0  0  0  0
180494  1  0  0  0  0
181495  1  0  0  0  0
182490  1  0  0  0  0
183491  1  0  0  0  0
184504  1  0  0  0  0
185505  1  0  0  0  0
186506  1  0  0  0  0
187507  1  0  0  0  0
188508  1  0  0  0  0
189509  1  0  0  0  0
190510  1  0  0  0  0
191511  1  0  0  0  0
192516  1  0  0  0  0
193517  1  0  0  0  0
194518  1  0  0  0  0
195519  1  0  0  0  0
196530  1  0  0  0  0
197531  1  0  0  0  0
198532  1  0  0  0  0
199533  1  0  0  0  0
200534  1  0  0  0  0
201535  1  0  0  0  0
202536  1  0  0  0  0
203538  1  0  0  0  0
204539  1  0  0  0  0
205541  1  0  0  0  0
206549  1  0  0  0  0
207550  1  0  0  0  0
208548  1  0  0  0  0
209552  1  0  0  0  0
210553  1  0  0  0  0
211551  1  0  0  0  0
212216  1  0  0  0  0
212558  1  0  0  0  0
212562  1  0  0  0  0
213217  1  0  0  0  0
213559  1  0  0  0  0
213563  1  0  0  0  0
214218  1  0  0  0  0
214560  1  0  0  0  0
214564  1  0  0  0  0
215219  1  0  0  0  0
215561  1  0  0  0  0
215565  1  0  0  0  0
216220  1  0  0  0  0
216264  1  0  0  0  0
217221  1  0  0  0  0
217265  1  0  0  0  0
218222  1  0  0  0  0
218266  1  0  0  0  0
219223  1  0  0  0  0
219267  1  0  0  0  0
220224  1  0  0  0  0
221225  1  0  0  0  0
222227  1  0  0  0  0
223229  1  0  0  0  0
224234  1  0  0  0  0
225235  1  0  0  0  0
226230  1  0  0  0  0
227231  1  0  0  0  0
228232  1  0  0  0  0
229233  1  0  0  0  0
230236  1  0  0  0  0
230260  1  0  0  0  0
231261  1  0  0  0  0
232237  1  0  0  0  0
232262  1  0  0  0  0
233263  1  0  0  0  0
234238  1  0  0  0  0
234258  1  0  0  0  0
235239  1  0  0  0  0
235259  1  0  0  0  0
236240  1  0  0  0  0
237241  1  0  0  0  0
238242  1  0  0  0  0
239243  1  0  0  0  0
240244  1  0  0  0  0
240248  1  0  0  0  0
241245  1  0  0  0  0
241249  1  0  0  0  0
242246  1  0  0  0  0
242250  1  0  0  0  0
243247  1  0  0  0  0
243251  1  0  0  0  0
244566  1  0  0  0  0
244570  1  0  0  0  0
245567  1  0  0  0  0
245571  1  0  0  0  0
246568  1  0  0  0  0
246572  1  0  0  0  0
247569  1  0  0  0  0
247573  1  0  0  0  0
248252  1  0  0  0  0
249254  1  0  0  0  0
250256  1  0  0  0  0
251257  1  0  0  0  0
252260  1  0  0  0  0
253261  1  0  0  0  0
254262  1  0  0  0  0
255263  1  0  0  0  0
256258  1  0  0  0  0
257259  1  0  0  0  0
258264  1  0  0  0  0
259265  1  0  0  0  0
261266  1  0  0  0  0
263267  1  0  0  0  0
268272  1  0  0  0  0
268574  1  0  0  0  0
268578  1  0  0  0  0
269273  1  0  0  0  0
269575  1  0  0  0  0
269579  1  0  0  0  0
270274  1  0  0  0  0
270576  1  0  0  0  0
270580  1  0  0  0  0
271275  1  0  0  0  0
271577  1  0  0  0  0
271581  1  0  0  0  0
272276  1  0  0  0  0
272320  1  0  0  0  0
273277  1  0  0  0  0
273321  1  0  0  0  0
274278  1  0  0  0  0
274322  1  0  0  0  0
275279  1  0  0  0  0
275323  1  0  0  0  0
276280  1  0  0  0  0
277282  1  0  0  0  0
278283  1  0  0  0  0
279285  1  0  0  0  0
280288  1  0  0  0  0
281286  1  0  0  0  0
282287  1  0  0  0  0
283291  1  0  0  0  0
284289  1  0  0  0  0
285290  1  0  0  0  0
286292  1  0  0  0  0
286315  1  0  0  0  0
287316  1  0  0  0  0
288293  1  0  0  0  0
288314  1  0  0  0  0
289294  1  0  0  0  0
289318  1  0  0  0  0
290319  1  0  0  0  0
291295  1  0  0  0  0
291317  1  0  0  0  0
292296  1  0  0  0  0
293297  1  0  0  0  0
294298  1  0  0  0  0
295299  1  0  0  0  0
296300  1  0  0  0  0
296304  1  0  0  0  0
297301  1  0  0  0  0
297305  1  0  0  0  0
298302  1  0  0  0  0
298306  1  0  0  0  0
299303  1  0  0  0  0
299307  1  0  0  0  0
300582  1  0  0  0  0
300586  1  0  0  0  0
301583  1  0  0  0  0
301587  1  0  0  0  0
302584  1  0  0  0  0
302588  1  0  0  0  0
303585  1  0  0  0  0
303589  1  0  0  0  0
304308  1  0  0  0  0
305310  1  0  0  0  0
306311  1  0  0  0  0
307313  1  0  0  0  0
308315  1  0  0  0  0
309316  1  0  0  0  0
310314  1  0  0  0  0
311318  1  0  0  0  0
312319  1  0  0  0  0
313317  1  0  0  0  0
314320  1  0  0  0  0
316321  1  0  0  0  0
317322  1  0  0  0  0
319323  1  0  0  0  0
324328  1  0  0  0  0
324590  1  0  0  0  0
324594  1  0  0  0  0
325329  1  0  0  0  0
325591  1  0  0  0  0
325595  1  0  0  0  0
326330  1  0  0  0  0
326592  1  0  0  0  0
326596  1  0  0  0  0
327331  1  0  0  0  0
327593  1  0  0  0  0
327597  1  0  0  0  0
328332  1  0  0  0  0
328380  1  0  0  0  0
329333  1  0  0  0  0
329381  1  0  0  0  0
330334  1  0  0  0  0
330382  1  0  0  0  0
331335  1  0  0  0  0
331383  1  0  0  0  0
332337  1  0  0  0  0
333339  1  0  0  0  0
334341  1  0  0  0  0
335343  1  0  0  0  0
336344  1  0  0  0  0
337345  1  0  0  0  0
338346  1  0  0  0  0
339347  1  0  0  0  0
340348  1  0  0  0  0
341349  1  0  0  0  0
342350  1  0  0  0  0
343351  1  0  0  0  0
344352  1  0  0  0  0
344372  1  0  0  0  0
345373  1  0  0  0  0
346353  1  0  0  0  0
346374  1  0  0  0  0
347375  1  0  0  0  0
348354  1  0  0  0  0
348376  1  0  0  0  0
349377  1  0  0  0  0
350355  1  0  0  0  0
350378  1  0  0  0  0
351379  1  0  0  0  0
352356  1  0  0  0  0
353357  1  0  0  0  0
354358  1  0  0  0  0
355359  1  0  0  0  0
356360  1  0  0  0  0
356364  1  0  0  0  0
357361  1  0  0  0  0
357365  1  0  0  0  0
358362  1  0  0  0  0
358366  1  0  0  0  0
359363  1  0  0  0  0
359367  1  0  0  0  0
360598  1  0  0  0  0
360602  1  0  0  0  0
361599  1  0  0  0  0
361603  1  0  0  0  0
362600  1  0  0  0  0
362604  1  0  0  0  0
363601  1  0  0  0  0
363605  1  0  0  0  0
364368  1  0  0  0  0
365369  1  0  0  0  0
366370  1  0  0  0  0
367371  1  0  0  0  0
368372  1  0  0  0  0
369374  1  0  0  0  0
370376  1  0  0  0  0
371378  1  0  0  0  0
373380  1  0  0  0  0
375381  1  0  0  0  0
377382  1  0  0  0  0
379383  1  0  0  0  0
384388  1  0  0  0  0
384610  1  0  0  0  0
384616  1  0  0  0  0
385389  1  0  0  0  0
385612  1  0  0  0  0
385619  1  0  0  0  0
386390  1  0  0  0  0
386614  1  0  0  0  0
386622  1  0  0  0  0
387391  1  0  0  0  0
387615  1  0  0  0  0
387624  1  0  0  0  0
388394  1  0  0  0  0
388436  1  0  0  0  0
389393  1  0  0  0  0
389437  1  0  0  0  0
390397  1  0  0  0  0
390438  1  0  0  0  0
391396  1  0  0  0  0
391439  1  0  0  0  0
392398  1  0  0  0  0
393399  1  0  0  0  0
394400  1  0  0  0  0
395401  1  0  0  0  0
396402  1  0  0  0  0
397403  1  0  0  0  0
398405  1  0  0  0  0
399406  1  0  0  0  0
400404  1  0  0  0  0
401408  1  0  0  0  0
402409  1  0  0  0  0
403407  1  0  0  0  0
404410  1  0  0  0  0
404432  1  0  0  0  0
405411  1  0  0  0  0
406412  1  0  0  0  0
406433  1  0  0  0  0
407413  1  0  0  0  0
407434  1  0  0  0  0
408414  1  0  0  0  0
409415  1  0  0  0  0
409435  1  0  0  0  0
410416  1  0  0  0  0
412417  1  0  0  0  0
413418  1  0  0  0  0
415419  1  0  0  0  0
416420  1  0  0  0  0
416424  1  0  0  0  0
417421  1  0  0  0  0
417425  1  0  0  0  0
418422  1  0  0  0  0
418426  1  0  0  0  0
419423  1  0  0  0  0
419427  1  0  0  0  0
420625  1  0  0  0  0
420631  1  0  0  0  0
421627  1  0  0  0  0
421632  1  0  0  0  0
422628  1  0  0  0  0
422633  1  0  0  0  0
423630  1  0  0  0  0
423634  1  0  0  0  0
424428  1  0  0  0  0
425429  1  0  0  0  0
426430  1  0  0  0  0
427431  1  0  0  0  0
428432  1  0  0  0  0
429433  1  0  0  0  0
430434  1  0  0  0  0
431435  1  0  0  0  0
432436  1  0  0  0  0
433437  1  0  0  0  0
434438  1  0  0  0  0
435439  1  0  0  0  0
440444  1  0  0  0  0
440635  1  0  0  0  0
440639  1  0  0  0  0
441445  1  0  0  0  0
441636  1  0  0  0  0
441640  1  0  0  0  0
442446  1  0  0  0  0
442637  1  0  0  0  0
442642  1  0  0  0  0
443447  1  0  0  0  0
443638  1  0  0  0  0
443644  1  0  0  0  0
444448  1  0  0  0  0
444490  1  0  0  0  0
445449  1  0  0  0  0
445491  1  0  0  0  0
446450  1  0  0  0  0
446493  1  0  0  0  0
447451  1  0  0  0  0
447495  1  0  0  0  0
448452  1  0  0  0  0
449453  1  0  0  0  0
450454  1  0  0  0  0
451455  1  0  0  0  0
452456  1  0  0  0  0
453457  1  0  0  0  0
454458  1  0  0  0  0
455459  1  0  0  0  0
456460  1  0  0  0  0
456484  1  0  0  0  0
457461  1  0  0  0  0
457485  1  0  0  0  0
458462  1  0  0  0  0
458487  1  0  0  0  0
459463  1  0  0  0  0
459489  1  0  0  0  0
460464  1  0  0  0  0
461465  1  0  0  0  0
462466  1  0  0  0  0
463467  1  0  0  0  0
464468  1  0  0  0  0
464472  1  0  0  0  0
465469  1  0  0  0  0
465473  1  0  0  0  0
466470  1  0  0  0  0
466475  1  0  0  0  0
467471  1  0  0  0  0
467477  1  0  0  0  0
468645  1  0  0  0  0
468651  1  0  0  0  0
469646  1  0  0  0  0
469652  1  0  0  0  0
470648  1  0  0  0  0
470653  1  0  0  0  0
471650  1  0  0  0  0
471654  1  0  0  0  0
472482  1  0  0  0  0
473483  1  0  0  0  0
474478  1  0  0  0  0
475479  1  0  0  0  0
476480  1  0  0  0  0
477481  1  0  0  0  0
478486  1  0  0  0  0
479487  1  0  0  0  0
480488  1  0  0  0  0
481489  1  0  0  0  0
482484  1  0  0  0  0
483485  1  0  0  0  0
484490  1  0  0  0  0
485491  1  0  0  0  0
486492  1  0  0  0  0
487493  1  0  0  0  0
488494  1  0  0  0  0
489495  1  0  0  0  0
496500  1  0  0  0  0
496655  1  0  0  0  0
496659  1  0  0  0  0
497501  1  0  0  0  0
497656  1  0  0  0  0
497660  1  0  0  0  0
498502  1  0  0  0  0
498657  1  0  0  0  0
498661  1  0  0  0  0
499503  1  0  0  0  0
499658  1  0  0  0  0
499662  1  0  0  0  0
500504  1  0  0  0  0
500548  1  0  0  0  0
501505  1  0  0  0  0
501550  1  0  0  0  0
502506  1  0  0  0  0
502551  1  0  0  0  0
503507  1  0  0  0  0
503553  1  0  0  0  0
504508  1  0  0  0  0
505509  1  0  0  0  0
506510  1  0  0  0  0
507511  1  0  0  0  0
508512  1  0  0  0  0
509513  1  0  0  0  0
510514  1  0  0  0  0
511515  1  0  0  0  0
512516  1  0  0  0  0
512542  1  0  0  0  0
513517  1  0  0  0  0
513544  1  0  0  0  0
514518  1  0  0  0  0
514545  1  0  0  0  0
515519  1  0  0  0  0
515547  1  0  0  0  0
516520  1  0  0  0  0
517522  1  0  0  0  0
518523  1  0  0  0  0
519525  1  0  0  0  0
520526  1  0  0  0  0
520532  1  0  0  0  0
521530  1  0  0  0  0
522527  1  0  0  0  0
522531  1  0  0  0  0
523528  1  0  0  0  0
523535  1  0  0  0  0
524533  1  0  0  0  0
525529  1  0  0  0  0
525534  1  0  0  0  0
526663  1  0  0  0  0
526669  1  0  0  0  0
527665  1  0  0  0  0
527670  1  0  0  0  0
528666  1  0  0  0  0
528672  1  0  0  0  0
529668  1  0  0  0  0
529674  1  0  0  0  0
530536  1  0  0  0  0
531537  1  0  0  0  0
532538  1  0  0  0  0
533539  1  0  0  0  0
534540  1  0  0  0  0
535541  1  0  0  0  0
536543  1  0  0  0  0
537544  1  0  0  0  0
538542  1  0  0  0  0
539546  1  0  0  0  0
540547  1  0  0  0  0
541545  1  0  0  0  0
542548  1  0  0  0  0
543549  1  0  0  0  0
544550  1  0  0  0  0
545551  1  0  0  0  0
546552  1  0  0  0  0
547553  1  0  0  0  0
M  END
$$$$
