ndc_zn4o_pcu_ip2_off400
AtomForge visual export

689765  0  0  0  0            999 V2000
    8.4776    6.3222    6.3505 Zn  0  0  0  0  0  0  0  0  0  0  0  0
    8.4776   21.0382    6.3505 Zn  0  0  0  0  0  0  0  0  0  0  0  0
   23.1936    6.3222    6.3505 Zn  0  0  0  0  0  0  0  0  0  0  0  0
   23.1936   21.0382    6.3505 Zn  0  0  0  0  0  0  0  0  0  0  0  0
    6.2340    8.2964    6.4335 Zn  0  0  0  0  0  0  0  0  0  0  0  0
    6.2340   23.0124    6.4335 Zn  0  0  0  0  0  0  0  0  0  0  0  0
   20.9500    8.2964    6.4335 Zn  0  0  0  0  0  0  0  0  0  0  0  0
   20.9500   23.0124    6.4335 Zn  0  0  0  0  0  0  0  0  0  0  0  0
    6.4041    6.1371    8.3714 Zn  0  0  0  0  0  0  0  0  0  0  0  0
    6.4041   20.8531    8.3714 Zn  0  0  0  0  0  0  0  0  0  0  0  0
   21.1201    6.1371    8.3714 Zn  0  0  0  0  0  0  0  0  0  0  0  0
   21.1201   20.8531    8.3714 Zn  0  0  0  0  0  0  0  0  0  0  0  0
    8.3223    8.4012    8.5274 Zn  0  0  0  0  0  0  0  0  0  0  0  0
    8.3223   23.1172    8.5274 Zn  0  0  0  0  0  0  0  0  0  0  0  0
   23.0383    8.4012    8.5274 Zn  0  0  0  0  0  0  0  0  0  0  0  0
   23.0383   23.1172    8.5274 Zn  0  0  0  0  0  0  0  0  0  0  0  0
   14.2800   12.3392   12.0929 Zn  0  0  0  0  0  0  0  0  0  0  0  0
   14.2800   27.0552   12.0929 Zn  0  0  0  0  0  0  0  0  0  0  0  0
   -0.4360   12.3392   12.0929 Zn  0  0  0  0  0  0  0  0  0  0  0  0
   28.9960   12.3392   12.0929 Zn  0  0  0  0  0  0  0  0  0  0  0  0
   -0.4360   27.0552   12.0929 Zn  0  0  0  0  0  0  0  0  0  0  0  0
   28.9960   27.0552   12.0929 Zn  0  0  0  0  0  0  0  0  0  0  0  0
   12.0658   14.3473   12.2338 Zn  0  0  0  0  0  0  0  0  0  0  0  0
   12.0658   -0.3687   12.2338 Zn  0  0  0  0  0  0  0  0  0  0  0  0
   12.0658   29.0633   12.2338 Zn  0  0  0  0  0  0  0  0  0  0  0  0
   26.7818   14.3473   12.2338 Zn  0  0  0  0  0  0  0  0  0  0  0  0
   26.7818   -0.3687   12.2338 Zn  0  0  0  0  0  0  0  0  0  0  0  0
   26.7818   29.0633   12.2338 Zn  0  0  0  0  0  0  0  0  0  0  0  0
   12.1945   12.1683   -0.5825 Zn  0  0  0  0  0  0  0  0  0  0  0  0
   12.1945   12.1683   14.1335 Zn  0  0  0  0  0  0  0  0  0  0  0  0
   12.1945   26.8843   -0.5825 Zn  0  0  0  0  0  0  0  0  0  0  0  0
   12.1945   26.8843   14.1335 Zn  0  0  0  0  0  0  0  0  0  0  0  0
   26.9105   12.1683   -0.5825 Zn  0  0  0  0  0  0  0  0  0  0  0  0
   26.9105   12.1683   14.1335 Zn  0  0  0  0  0  0  0  0  0  0  0  0
   26.9105   26.8843   -0.5825 Zn  0  0  0  0  0  0  0  0  0  0  0  0
   26.9105   26.8843   14.1335 Zn  0  0  0  0  0  0  0  0  0  0  0  0
   14.1450   14.4087   -0.4147 Zn  0  0  0  0  0  0  0  0  0  0  0  0
   14.1450   14.4087   14.3013 Zn  0  0  0  0  0  0  0  0  0  0  0  0
   14.1450   -0.3073   -0.4147 Zn  0  0  0  0  0  0  0  0  0  0  0  0
   14.1450   -0.3073   14.3013 Zn  0  0  0  0  0  0  0  0  0  0  0  0
   14.1450   29.1247   -0.4147 Zn  0  0  0  0  0  0  0  0  0  0  0  0
   14.1450   29.1247   14.3013 Zn  0  0  0  0  0  0  0  0  0  0  0  0
   -0.5710   14.4087   -0.4147 Zn  0  0  0  0  0  0  0  0  0  0  0  0
   -0.5710   14.4087   14.3013 Zn  0  0  0  0  0  0  0  0  0  0  0  0
   28.8610   14.4087   -0.4147 Zn  0  0  0  0  0  0  0  0  0  0  0  0
   28.8610   14.4087   14.3013 Zn  0  0  0  0  0  0  0  0  0  0  0  0
   -0.5710   -0.3073   -0.4147 Zn  0  0  0  0  0  0  0  0  0  0  0  0
   -0.5710   -0.3073   14.3013 Zn  0  0  0  0  0  0  0  0  0  0  0  0
   -0.5710   29.1247   -0.4147 Zn  0  0  0  0  0  0  0  0  0  0  0  0
   -0.5710   29.1247   14.3013 Zn  0  0  0  0  0  0  0  0  0  0  0  0
   28.8610   -0.3073   -0.4147 Zn  0  0  0  0  0  0  0  0  0  0  0  0
   28.8610   -0.3073   14.3013 Zn  0  0  0  0  0  0  0  0  0  0  0  0
   28.8610   29.1247   -0.4147 Zn  0  0  0  0  0  0  0  0  0  0  0  0
   28.8610   29.1247   14.3013 Zn  0  0  0  0  0  0  0  0  0  0  0  0
   12.1415    9.6516    7.8564 H   0  0  0  0  0  0  0  0  0  0  0  0
   12.1415   24.3676    7.8564 H   0  0  0  0  0  0  0  0  0  0  0  0
   26.8575    9.6516    7.8564 H   0  0  0  0  0  0  0  0  0  0  0  0
   26.8575   24.3676    7.8564 H   0  0  0  0  0  0  0  0  0  0  0  0
   14.6227    9.9516    7.6642 H   0  0  0  0  0  0  0  0  0  0  0  0
   14.6227   24.6676    7.6642 H   0  0  0  0  0  0  0  0  0  0  0  0
   -0.0933    9.9516    7.6642 H   0  0  0  0  0  0  0  0  0  0  0  0
   29.3387    9.9516    7.6642 H   0  0  0  0  0  0  0  0  0  0  0  0
   -0.0933   24.6676    7.6642 H   0  0  0  0  0  0  0  0  0  0  0  0
   29.3387   24.6676    7.6642 H   0  0  0  0  0  0  0  0  0  0  0  0
    2.1347    8.9735    7.3536 H   0  0  0  0  0  0  0  0  0  0  0  0
    2.1347   23.6895    7.3536 H   0  0  0  0  0  0  0  0  0  0  0  0
   16.8507    8.9735    7.3536 H   0  0  0  0  0  0  0  0  0  0  0  0
   16.8507   23.6895    7.3536 H   0  0  0  0  0  0  0  0  0  0  0  0
    2.6007    4.7376    7.3478 H   0  0  0  0  0  0  0  0  0  0  0  0
    2.6007   19.4536    7.3478 H   0  0  0  0  0  0  0  0  0  0  0  0
   17.3167    4.7376    7.3478 H   0  0  0  0  0  0  0  0  0  0  0  0
   17.3167   19.4536    7.3478 H   0  0  0  0  0  0  0  0  0  0  0  0
    0.1376    4.4445    7.2081 H   0  0  0  0  0  0  0  0  0  0  0  0
   29.5696    4.4445    7.2081 H   0  0  0  0  0  0  0  0  0  0  0  0
    0.1376   19.1605    7.2081 H   0  0  0  0  0  0  0  0  0  0  0  0
   29.5696   19.1605    7.2081 H   0  0  0  0  0  0  0  0  0  0  0  0
   14.8536    4.4445    7.2081 H   0  0  0  0  0  0  0  0  0  0  0  0
   14.8536   19.1605    7.2081 H   0  0  0  0  0  0  0  0  0  0  0  0
   12.5636    5.4711    7.1912 H   0  0  0  0  0  0  0  0  0  0  0  0
   12.5636   20.1871    7.1912 H   0  0  0  0  0  0  0  0  0  0  0  0
   27.2796    5.4711    7.1912 H   0  0  0  0  0  0  0  0  0  0  0  0
   27.2796   20.1871    7.1912 H   0  0  0  0  0  0  0  0  0  0  0  0
    4.9326   12.0887    7.2594 H   0  0  0  0  0  0  0  0  0  0  0  0
    4.9326   26.8047    7.2594 H   0  0  0  0  0  0  0  0  0  0  0  0
   19.6486   12.0887    7.2594 H   0  0  0  0  0  0  0  0  0  0  0  0
   19.6486   26.8047    7.2594 H   0  0  0  0  0  0  0  0  0  0  0  0
    4.6667   14.5657    7.3633 H   0  0  0  0  0  0  0  0  0  0  0  0
    4.6667   -0.1503    7.3633 H   0  0  0  0  0  0  0  0  0  0  0  0
    4.6667   29.2817    7.3633 H   0  0  0  0  0  0  0  0  0  0  0  0
   19.3827   14.5657    7.3633 H   0  0  0  0  0  0  0  0  0  0  0  0
   19.3827   -0.1503    7.3633 H   0  0  0  0  0  0  0  0  0  0  0  0
   19.3827   29.2817    7.3633 H   0  0  0  0  0  0  0  0  0  0  0  0
    5.6882    2.0832    7.5092 H   0  0  0  0  0  0  0  0  0  0  0  0
    5.6882   16.7992    7.5092 H   0  0  0  0  0  0  0  0  0  0  0  0
   20.4042    2.0832    7.5092 H   0  0  0  0  0  0  0  0  0  0  0  0
   20.4042   16.7992    7.5092 H   0  0  0  0  0  0  0  0  0  0  0  0
    9.9166    2.4958    7.1959 H   0  0  0  0  0  0  0  0  0  0  0  0
    9.9166   17.2118    7.1959 H   0  0  0  0  0  0  0  0  0  0  0  0
   24.6326    2.4958    7.1959 H   0  0  0  0  0  0  0  0  0  0  0  0
   24.6326   17.2118    7.1959 H   0  0  0  0  0  0  0  0  0  0  0  0
   10.1937    0.0272    7.4544 H   0  0  0  0  0  0  0  0  0  0  0  0
   10.1937   29.4592    7.4544 H   0  0  0  0  0  0  0  0  0  0  0  0
   10.1937   14.7432    7.4544 H   0  0  0  0  0  0  0  0  0  0  0  0
   24.9097    0.0272    7.4544 H   0  0  0  0  0  0  0  0  0  0  0  0
   24.9097   29.4592    7.4544 H   0  0  0  0  0  0  0  0  0  0  0  0
   24.9097   14.7432    7.4544 H   0  0  0  0  0  0  0  0  0  0  0  0
    9.1598   12.5062    7.6553 H   0  0  0  0  0  0  0  0  0  0  0  0
    9.1598   27.2222    7.6553 H   0  0  0  0  0  0  0  0  0  0  0  0
   23.8758   12.5062    7.6553 H   0  0  0  0  0  0  0  0  0  0  0  0
   23.8758   27.2222    7.6553 H   0  0  0  0  0  0  0  0  0  0  0  0
    7.2863    4.8023   12.1332 H   0  0  0  0  0  0  0  0  0  0  0  0
    7.2863   19.5183   12.1332 H   0  0  0  0  0  0  0  0  0  0  0  0
   22.0023    4.8023   12.1332 H   0  0  0  0  0  0  0  0  0  0  0  0
   22.0023   19.5183   12.1332 H   0  0  0  0  0  0  0  0  0  0  0  0
    7.4227    4.4514   -0.1259 H   0  0  0  0  0  0  0  0  0  0  0  0
    7.4227    4.4514   14.5901 H   0  0  0  0  0  0  0  0  0  0  0  0
    7.4227   19.1674   -0.1259 H   0  0  0  0  0  0  0  0  0  0  0  0
    7.4227   19.1674   14.5901 H   0  0  0  0  0  0  0  0  0  0  0  0
   22.1387    4.4514   -0.1259 H   0  0  0  0  0  0  0  0  0  0  0  0
   22.1387    4.4514   14.5901 H   0  0  0  0  0  0  0  0  0  0  0  0
   22.1387   19.1674   -0.1259 H   0  0  0  0  0  0  0  0  0  0  0  0
   22.1387   19.1674   14.5901 H   0  0  0  0  0  0  0  0  0  0  0  0
    7.5105    5.4241    2.1745 H   0  0  0  0  0  0  0  0  0  0  0  0
    7.5105   20.1401    2.1745 H   0  0  0  0  0  0  0  0  0  0  0  0
   22.2265    5.4241    2.1745 H   0  0  0  0  0  0  0  0  0  0  0  0
   22.2265   20.1401    2.1745 H   0  0  0  0  0  0  0  0  0  0  0  0
    7.2749    9.6471    2.6761 H   0  0  0  0  0  0  0  0  0  0  0  0
    7.2749   24.3631    2.6761 H   0  0  0  0  0  0  0  0  0  0  0  0
   21.9909    9.6471    2.6761 H   0  0  0  0  0  0  0  0  0  0  0  0
   21.9909   24.3631    2.6761 H   0  0  0  0  0  0  0  0  0  0  0  0
    7.5952    9.9849    0.2435 H   0  0  0  0  0  0  0  0  0  0  0  0
    7.5952   24.7009    0.2435 H   0  0  0  0  0  0  0  0  0  0  0  0
   22.3112    9.9849    0.2435 H   0  0  0  0  0  0  0  0  0  0  0  0
   22.3112   24.7009    0.2435 H   0  0  0  0  0  0  0  0  0  0  0  0
    7.7444    8.9922   12.6588 H   0  0  0  0  0  0  0  0  0  0  0  0
    7.7444   23.7082   12.6588 H   0  0  0  0  0  0  0  0  0  0  0  0
   22.4604    8.9922   12.6588 H   0  0  0  0  0  0  0  0  0  0  0  0
   22.4604   23.7082   12.6588 H   0  0  0  0  0  0  0  0  0  0  0  0
    3.2105    1.1014   13.4029 H   0  0  0  0  0  0  0  0  0  0  0  0
    3.2105   30.5334   13.4029 H   0  0  0  0  0  0  0  0  0  0  0  0
    3.2105   15.8174   13.4029 H   0  0  0  0  0  0  0  0  0  0  0  0
   17.9265    1.1014   13.4029 H   0  0  0  0  0  0  0  0  0  0  0  0
   17.9265   30.5334   13.4029 H   0  0  0  0  0  0  0  0  0  0  0  0
   17.9265   15.8174   13.4029 H   0  0  0  0  0  0  0  0  0  0  0  0
    5.6646    1.4300   13.2203 H   0  0  0  0  0  0  0  0  0  0  0  0
    5.6646   16.1460   13.2203 H   0  0  0  0  0  0  0  0  0  0  0  0
   20.3806    1.4300   13.2203 H   0  0  0  0  0  0  0  0  0  0  0  0
   20.3806   16.1460   13.2203 H   0  0  0  0  0  0  0  0  0  0  0  0
    7.9454    0.4502   13.1220 H   0  0  0  0  0  0  0  0  0  0  0  0
    7.9454   29.8822   13.1220 H   0  0  0  0  0  0  0  0  0  0  0  0
    7.9454   15.1662   13.1220 H   0  0  0  0  0  0  0  0  0  0  0  0
   22.6614    0.4502   13.1220 H   0  0  0  0  0  0  0  0  0  0  0  0
   22.6614   29.8822   13.1220 H   0  0  0  0  0  0  0  0  0  0  0  0
   22.6614   15.1662   13.1220 H   0  0  0  0  0  0  0  0  0  0  0  0
    8.4503   10.9478   13.0237 H   0  0  0  0  0  0  0  0  0  0  0  0
    8.4503   25.6638   13.0237 H   0  0  0  0  0  0  0  0  0  0  0  0
   23.1663   10.9478   13.0237 H   0  0  0  0  0  0  0  0  0  0  0  0
   23.1663   25.6638   13.0237 H   0  0  0  0  0  0  0  0  0  0  0  0
    5.9756   10.6264   12.8548 H   0  0  0  0  0  0  0  0  0  0  0  0
    5.9756   25.3424   12.8548 H   0  0  0  0  0  0  0  0  0  0  0  0
   20.6916   10.6264   12.8548 H   0  0  0  0  0  0  0  0  0  0  0  0
   20.6916   25.3424   12.8548 H   0  0  0  0  0  0  0  0  0  0  0  0
    3.6988   11.6159   12.8769 H   0  0  0  0  0  0  0  0  0  0  0  0
    3.6988   26.3319   12.8769 H   0  0  0  0  0  0  0  0  0  0  0  0
   18.4148   11.6159   12.8769 H   0  0  0  0  0  0  0  0  0  0  0  0
   18.4148   26.3319   12.8769 H   0  0  0  0  0  0  0  0  0  0  0  0
   10.7621    3.3790   13.1063 H   0  0  0  0  0  0  0  0  0  0  0  0
   10.7621   18.0950   13.1063 H   0  0  0  0  0  0  0  0  0  0  0  0
   25.4781    3.3790   13.1063 H   0  0  0  0  0  0  0  0  0  0  0  0
   25.4781   18.0950   13.1063 H   0  0  0  0  0  0  0  0  0  0  0  0
   10.4797    5.8589   13.2253 H   0  0  0  0  0  0  0  0  0  0  0  0
   10.4797   20.5749   13.2253 H   0  0  0  0  0  0  0  0  0  0  0  0
   25.1957    5.8589   13.2253 H   0  0  0  0  0  0  0  0  0  0  0  0
   25.1957   20.5749   13.2253 H   0  0  0  0  0  0  0  0  0  0  0  0
   11.4954    8.0975   13.3143 H   0  0  0  0  0  0  0  0  0  0  0  0
   11.4954   22.8135   13.3143 H   0  0  0  0  0  0  0  0  0  0  0  0
   26.2114    8.0975   13.3143 H   0  0  0  0  0  0  0  0  0  0  0  0
   26.2114   22.8135   13.3143 H   0  0  0  0  0  0  0  0  0  0  0  0
    1.0156    8.5139   13.0000 H   0  0  0  0  0  0  0  0  0  0  0  0
   30.4476    8.5139   13.0000 H   0  0  0  0  0  0  0  0  0  0  0  0
    1.0156   23.2299   13.0000 H   0  0  0  0  0  0  0  0  0  0  0  0
   30.4476   23.2299   13.0000 H   0  0  0  0  0  0  0  0  0  0  0  0
   15.7316    8.5139   13.0000 H   0  0  0  0  0  0  0  0  0  0  0  0
   15.7316   23.2299   13.0000 H   0  0  0  0  0  0  0  0  0  0  0  0
    1.2881    6.0530   13.2754 H   0  0  0  0  0  0  0  0  0  0  0  0
    1.2881   20.7690   13.2754 H   0  0  0  0  0  0  0  0  0  0  0  0
   16.0041    6.0530   13.2754 H   0  0  0  0  0  0  0  0  0  0  0  0
   16.0041   20.7690   13.2754 H   0  0  0  0  0  0  0  0  0  0  0  0
    0.2662    3.8128   13.4836 H   0  0  0  0  0  0  0  0  0  0  0  0
   29.6982    3.8128   13.4836 H   0  0  0  0  0  0  0  0  0  0  0  0
    0.2662   18.5288   13.4836 H   0  0  0  0  0  0  0  0  0  0  0  0
   29.6982   18.5288   13.4836 H   0  0  0  0  0  0  0  0  0  0  0  0
   14.9822    3.8128   13.4836 H   0  0  0  0  0  0  0  0  0  0  0  0
   14.9822   18.5288   13.4836 H   0  0  0  0  0  0  0  0  0  0  0  0
   12.9850   10.9569    3.2133 H   0  0  0  0  0  0  0  0  0  0  0  0
   12.9850   25.6729    3.2133 H   0  0  0  0  0  0  0  0  0  0  0  0
   27.7010   10.9569    3.2133 H   0  0  0  0  0  0  0  0  0  0  0  0
   27.7010   25.6729    3.2133 H   0  0  0  0  0  0  0  0  0  0  0  0
   13.1085   10.6227    5.6703 H   0  0  0  0  0  0  0  0  0  0  0  0
   13.1085   25.3387    5.6703 H   0  0  0  0  0  0  0  0  0  0  0  0
   27.8245   10.6227    5.6703 H   0  0  0  0  0  0  0  0  0  0  0  0
   27.8245   25.3387    5.6703 H   0  0  0  0  0  0  0  0  0  0  0  0
   13.2213   11.6133    7.9601 H   0  0  0  0  0  0  0  0  0  0  0  0
   13.2213   26.3293    7.9601 H   0  0  0  0  0  0  0  0  0  0  0  0
   27.9373   11.6133    7.9601 H   0  0  0  0  0  0  0  0  0  0  0  0
   27.9373   26.3293    7.9601 H   0  0  0  0  0  0  0  0  0  0  0  0
   13.0852    1.1109    8.4687 H   0  0  0  0  0  0  0  0  0  0  0  0
   13.0852   30.5429    8.4687 H   0  0  0  0  0  0  0  0  0  0  0  0
   13.0852   15.8269    8.4687 H   0  0  0  0  0  0  0  0  0  0  0  0
   27.8012    1.1109    8.4687 H   0  0  0  0  0  0  0  0  0  0  0  0
   27.8012   30.5429    8.4687 H   0  0  0  0  0  0  0  0  0  0  0  0
   27.8012   15.8269    8.4687 H   0  0  0  0  0  0  0  0  0  0  0  0
   13.2796    1.4404    6.0161 H   0  0  0  0  0  0  0  0  0  0  0  0
   13.2796   16.1564    6.0161 H   0  0  0  0  0  0  0  0  0  0  0  0
   27.9956    1.4404    6.0161 H   0  0  0  0  0  0  0  0  0  0  0  0
   27.9956   16.1564    6.0161 H   0  0  0  0  0  0  0  0  0  0  0  0
   13.3686    0.4534    3.7150 H   0  0  0  0  0  0  0  0  0  0  0  0
   13.3686   29.8854    3.7150 H   0  0  0  0  0  0  0  0  0  0  0  0
   13.3686   15.1694    3.7150 H   0  0  0  0  0  0  0  0  0  0  0  0
   28.0846    0.4534    3.7150 H   0  0  0  0  0  0  0  0  0  0  0  0
   28.0846   29.8854    3.7150 H   0  0  0  0  0  0  0  0  0  0  0  0
   28.0846   15.1694    3.7150 H   0  0  0  0  0  0  0  0  0  0  0  0
   10.7699    7.4219    7.5401 C   0  0  0  0  0  0  0  0  0  0  0  0
   10.7699   22.1379    7.5401 C   0  0  0  0  0  0  0  0  0  0  0  0
   25.4859    7.4219    7.5401 C   0  0  0  0  0  0  0  0  0  0  0  0
   25.4859   22.1379    7.5401 C   0  0  0  0  0  0  0  0  0  0  0  0
   12.2457    7.5467    7.5058 C   0  0  0  0  0  0  0  0  0  0  0  0
   12.2457   22.2627    7.5058 C   0  0  0  0  0  0  0  0  0  0  0  0
   26.9617    7.5467    7.5058 C   0  0  0  0  0  0  0  0  0  0  0  0
   26.9617   22.2627    7.5058 C   0  0  0  0  0  0  0  0  0  0  0  0
   12.8112    8.8249    7.6716 C   0  0  0  0  0  0  0  0  0  0  0  0
   12.8112   23.5409    7.6716 C   0  0  0  0  0  0  0  0  0  0  0  0
   27.5272    8.8249    7.6716 C   0  0  0  0  0  0  0  0  0  0  0  0
   27.5272   23.5409    7.6716 C   0  0  0  0  0  0  0  0  0  0  0  0
   14.1623    8.9798    7.5705 C   0  0  0  0  0  0  0  0  0  0  0  0
   14.1623   23.6958    7.5705 C   0  0  0  0  0  0  0  0  0  0  0  0
   -0.5537    8.9798    7.5705 C   0  0  0  0  0  0  0  0  0  0  0  0
   28.8783    8.9798    7.5705 C   0  0  0  0  0  0  0  0  0  0  0  0
   -0.5537   23.6958    7.5705 C   0  0  0  0  0  0  0  0  0  0  0  0
   28.8783   23.6958    7.5705 C   0  0  0  0  0  0  0  0  0  0  0  0
    0.2840    7.8580    7.3916 C   0  0  0  0  0  0  0  0  0  0  0  0
   29.7160    7.8580    7.3916 C   0  0  0  0  0  0  0  0  0  0  0  0
    0.2840   22.5740    7.3916 C   0  0  0  0  0  0  0  0  0  0  0  0
   29.7160   22.5740    7.3916 C   0  0  0  0  0  0  0  0  0  0  0  0
   15.0000    7.8580    7.3916 C   0  0  0  0  0  0  0  0  0  0  0  0
   15.0000   22.5740    7.3916 C   0  0  0  0  0  0  0  0  0  0  0  0
    1.6825    7.9933    7.3454 C   0  0  0  0  0  0  0  0  0  0  0  0
    1.6825   22.7093    7.3454 C   0  0  0  0  0  0  0  0  0  0  0  0
   16.3985    7.9933    7.3454 C   0  0  0  0  0  0  0  0  0  0  0  0
   16.3985   22.7093    7.3454 C   0  0  0  0  0  0  0  0  0  0  0  0
    2.4812    6.8788    7.3431 C   0  0  0  0  0  0  0  0  0  0  0  0
    2.4812   21.5948    7.3431 C   0  0  0  0  0  0  0  0  0  0  0  0
   17.1972    6.8788    7.3431 C   0  0  0  0  0  0  0  0  0  0  0  0
   17.1972   21.5948    7.3431 C   0  0  0  0  0  0  0  0  0  0  0  0
    3.9489    7.0542    7.4288 C   0  0  0  0  0  0  0  0  0  0  0  0
    3.9489   21.7702    7.4288 C   0  0  0  0  0  0  0  0  0  0  0  0
   18.6649    7.0542    7.4288 C   0  0  0  0  0  0  0  0  0  0  0  0
   18.6649   21.7702    7.4288 C   0  0  0  0  0  0  0  0  0  0  0  0
    1.9282    5.5826    7.3231 C   0  0  0  0  0  0  0  0  0  0  0  0
    1.9282   20.2986    7.3231 C   0  0  0  0  0  0  0  0  0  0  0  0
   16.6442    5.5826    7.3231 C   0  0  0  0  0  0  0  0  0  0  0  0
   16.6442   20.2986    7.3231 C   0  0  0  0  0  0  0  0  0  0  0  0
    0.5729    5.4314    7.2575 C   0  0  0  0  0  0  0  0  0  0  0  0
   30.0049    5.4314    7.2575 C   0  0  0  0  0  0  0  0  0  0  0  0
    0.5729   20.1474    7.2575 C   0  0  0  0  0  0  0  0  0  0  0  0
   30.0049   20.1474    7.2575 C   0  0  0  0  0  0  0  0  0  0  0  0
   15.2889    5.4314    7.2575 C   0  0  0  0  0  0  0  0  0  0  0  0
   15.2889   20.1474    7.2575 C   0  0  0  0  0  0  0  0  0  0  0  0
   14.4322    6.5561    7.3065 C   0  0  0  0  0  0  0  0  0  0  0  0
   14.4322   21.2721    7.3065 C   0  0  0  0  0  0  0  0  0  0  0  0
   -0.2838    6.5561    7.3065 C   0  0  0  0  0  0  0  0  0  0  0  0
   29.1482    6.5561    7.3065 C   0  0  0  0  0  0  0  0  0  0  0  0
   -0.2838   21.2721    7.3065 C   0  0  0  0  0  0  0  0  0  0  0  0
   29.1482   21.2721    7.3065 C   0  0  0  0  0  0  0  0  0  0  0  0
   13.0294    6.4372    7.3120 C   0  0  0  0  0  0  0  0  0  0  0  0
   13.0294   21.1532    7.3120 C   0  0  0  0  0  0  0  0  0  0  0  0
   27.7454    6.4372    7.3120 C   0  0  0  0  0  0  0  0  0  0  0  0
   27.7454   21.1532    7.3120 C   0  0  0  0  0  0  0  0  0  0  0  0
    7.2008   10.7130    7.4413 C   0  0  0  0  0  0  0  0  0  0  0  0
    7.2008   25.4290    7.4413 C   0  0  0  0  0  0  0  0  0  0  0  0
   21.9168   10.7130    7.4413 C   0  0  0  0  0  0  0  0  0  0  0  0
   21.9168   25.4290    7.4413 C   0  0  0  0  0  0  0  0  0  0  0  0
    7.0647   12.1835    7.4788 C   0  0  0  0  0  0  0  0  0  0  0  0
    7.0647   26.8995    7.4788 C   0  0  0  0  0  0  0  0  0  0  0  0
   21.7807   12.1835    7.4788 C   0  0  0  0  0  0  0  0  0  0  0  0
   21.7807   26.8995    7.4788 C   0  0  0  0  0  0  0  0  0  0  0  0
    5.7793   12.7488    7.3641 C   0  0  0  0  0  0  0  0  0  0  0  0
    5.7793   27.4648    7.3641 C   0  0  0  0  0  0  0  0  0  0  0  0
   20.4953   12.7488    7.3641 C   0  0  0  0  0  0  0  0  0  0  0  0
   20.4953   27.4648    7.3641 C   0  0  0  0  0  0  0  0  0  0  0  0
    5.6409   14.1037    7.4110 C   0  0  0  0  0  0  0  0  0  0  0  0
    5.6409   -0.6123    7.4110 C   0  0  0  0  0  0  0  0  0  0  0  0
    5.6409   28.8197    7.4110 C   0  0  0  0  0  0  0  0  0  0  0  0
   20.3569   14.1037    7.4110 C   0  0  0  0  0  0  0  0  0  0  0  0
   20.3569   -0.6123    7.4110 C   0  0  0  0  0  0  0  0  0  0  0  0
   20.3569   28.8197    7.4110 C   0  0  0  0  0  0  0  0  0  0  0  0
    6.7779    0.2222    7.4791 C   0  0  0  0  0  0  0  0  0  0  0  0
    6.7779   29.6542    7.4791 C   0  0  0  0  0  0  0  0  0  0  0  0
    6.7779   14.9382    7.4791 C   0  0  0  0  0  0  0  0  0  0  0  0
   21.4939    0.2222    7.4791 C   0  0  0  0  0  0  0  0  0  0  0  0
   21.4939   29.6542    7.4791 C   0  0  0  0  0  0  0  0  0  0  0  0
   21.4939   14.9382    7.4791 C   0  0  0  0  0  0  0  0  0  0  0  0
    6.6624    1.6210    7.4762 C   0  0  0  0  0  0  0  0  0  0  0  0
    6.6624   16.3370    7.4762 C   0  0  0  0  0  0  0  0  0  0  0  0
   21.3784    1.6210    7.4762 C   0  0  0  0  0  0  0  0  0  0  0  0
   21.3784   16.3370    7.4762 C   0  0  0  0  0  0  0  0  0  0  0  0
    7.7853    2.4013    7.3803 C   0  0  0  0  0  0  0  0  0  0  0  0
    7.7853   17.1173    7.3803 C   0  0  0  0  0  0  0  0  0  0  0  0
   22.5013    2.4013    7.3803 C   0  0  0  0  0  0  0  0  0  0  0  0
   22.5013   17.1173    7.3803 C   0  0  0  0  0  0  0  0  0  0  0  0
    7.6281    3.8665    7.3124 C   0  0  0  0  0  0  0  0  0  0  0  0
    7.6281   18.5825    7.3124 C   0  0  0  0  0  0  0  0  0  0  0  0
   22.3441    3.8665    7.3124 C   0  0  0  0  0  0  0  0  0  0  0  0
   22.3441   18.5825    7.3124 C   0  0  0  0  0  0  0  0  0  0  0  0
    9.0734    1.8354    7.3236 C   0  0  0  0  0  0  0  0  0  0  0  0
    9.0734   16.5514    7.3236 C   0  0  0  0  0  0  0  0  0  0  0  0
   23.7894    1.8354    7.3236 C   0  0  0  0  0  0  0  0  0  0  0  0
   23.7894   16.5514    7.3236 C   0  0  0  0  0  0  0  0  0  0  0  0
    9.2160    0.4845    7.4434 C   0  0  0  0  0  0  0  0  0  0  0  0
    9.2160   29.9165    7.4434 C   0  0  0  0  0  0  0  0  0  0  0  0
    9.2160   15.2005    7.4434 C   0  0  0  0  0  0  0  0  0  0  0  0
   23.9320    0.4845    7.4434 C   0  0  0  0  0  0  0  0  0  0  0  0
   23.9320   29.9165    7.4434 C   0  0  0  0  0  0  0  0  0  0  0  0
   23.9320   15.2005    7.4434 C   0  0  0  0  0  0  0  0  0  0  0  0
    8.0786   14.3651    7.5141 C   0  0  0  0  0  0  0  0  0  0  0  0
    8.0786   -0.3509    7.5141 C   0  0  0  0  0  0  0  0  0  0  0  0
    8.0786   29.0811    7.5141 C   0  0  0  0  0  0  0  0  0  0  0  0
   22.7946   14.3651    7.5141 C   0  0  0  0  0  0  0  0  0  0  0  0
   22.7946   -0.3509    7.5141 C   0  0  0  0  0  0  0  0  0  0  0  0
   22.7946   29.0811    7.5141 C   0  0  0  0  0  0  0  0  0  0  0  0
    8.1875   12.9656    7.5726 C   0  0  0  0  0  0  0  0  0  0  0  0
    8.1875   27.6816    7.5726 C   0  0  0  0  0  0  0  0  0  0  0  0
   22.9035   12.9656    7.5726 C   0  0  0  0  0  0  0  0  0  0  0  0
   22.9035   27.6816    7.5726 C   0  0  0  0  0  0  0  0  0  0  0  0
    7.3935    7.1329   10.8223 C   0  0  0  0  0  0  0  0  0  0  0  0
    7.3935   21.8489   10.8223 C   0  0  0  0  0  0  0  0  0  0  0  0
   22.1095    7.1329   10.8223 C   0  0  0  0  0  0  0  0  0  0  0  0
   22.1095   21.8489   10.8223 C   0  0  0  0  0  0  0  0  0  0  0  0
    7.5025    6.9296   12.2850 C   0  0  0  0  0  0  0  0  0  0  0  0
    7.5025   21.6456   12.2850 C   0  0  0  0  0  0  0  0  0  0  0  0
   22.2185    6.9296   12.2850 C   0  0  0  0  0  0  0  0  0  0  0  0
   22.2185   21.6456   12.2850 C   0  0  0  0  0  0  0  0  0  0  0  0
    7.4060    5.6275   12.8180 C   0  0  0  0  0  0  0  0  0  0  0  0
    7.4060   20.3435   12.8180 C   0  0  0  0  0  0  0  0  0  0  0  0
   22.1220    5.6275   12.8180 C   0  0  0  0  0  0  0  0  0  0  0  0
   22.1220   20.3435   12.8180 C   0  0  0  0  0  0  0  0  0  0  0  0
    7.4699    5.4458   -0.5467 C   0  0  0  0  0  0  0  0  0  0  0  0
    7.4699    5.4458   14.1693 C   0  0  0  0  0  0  0  0  0  0  0  0
    7.4699   20.1618   -0.5467 C   0  0  0  0  0  0  0  0  0  0  0  0
    7.4699   20.1618   14.1693 C   0  0  0  0  0  0  0  0  0  0  0  0
   22.1859    5.4458   -0.5467 C   0  0  0  0  0  0  0  0  0  0  0  0
   22.1859    5.4458   14.1693 C   0  0  0  0  0  0  0  0  0  0  0  0
   22.1859   20.1618   -0.5467 C   0  0  0  0  0  0  0  0  0  0  0  0
   22.1859   20.1618   14.1693 C   0  0  0  0  0  0  0  0  0  0  0  0
    7.5440    6.5547    0.3312 C   0  0  0  0  0  0  0  0  0  0  0  0
    7.5440    6.5547   15.0472 C   0  0  0  0  0  0  0  0  0  0  0  0
    7.5440   21.2707    0.3312 C   0  0  0  0  0  0  0  0  0  0  0  0
    7.5440   21.2707   15.0472 C   0  0  0  0  0  0  0  0  0  0  0  0
   22.2600    6.5547    0.3312 C   0  0  0  0  0  0  0  0  0  0  0  0
   22.2600    6.5547   15.0472 C   0  0  0  0  0  0  0  0  0  0  0  0
   22.2600   21.2707    0.3312 C   0  0  0  0  0  0  0  0  0  0  0  0
   22.2600   21.2707   15.0472 C   0  0  0  0  0  0  0  0  0  0  0  0
    7.5066    6.4071    1.7318 C   0  0  0  0  0  0  0  0  0  0  0  0
    7.5066   21.1231    1.7318 C   0  0  0  0  0  0  0  0  0  0  0  0
   22.2226    6.4071    1.7318 C   0  0  0  0  0  0  0  0  0  0  0  0
   22.2226   21.1231    1.7318 C   0  0  0  0  0  0  0  0  0  0  0  0
    7.4074    7.5089    2.5421 C   0  0  0  0  0  0  0  0  0  0  0  0
    7.4074   22.2249    2.5421 C   0  0  0  0  0  0  0  0  0  0  0  0
   22.1234    7.5089    2.5421 C   0  0  0  0  0  0  0  0  0  0  0  0
   22.1234   22.2249    2.5421 C   0  0  0  0  0  0  0  0  0  0  0  0
    7.3278    7.3534    4.0170 C   0  0  0  0  0  0  0  0  0  0  0  0
    7.3278   22.0694    4.0170 C   0  0  0  0  0  0  0  0  0  0  0  0
   22.0438    7.3534    4.0170 C   0  0  0  0  0  0  0  0  0  0  0  0
   22.0438   22.0694    4.0170 C   0  0  0  0  0  0  0  0  0  0  0  0
    7.3977    8.8108    2.0058 C   0  0  0  0  0  0  0  0  0  0  0  0
    7.3977   23.5268    2.0058 C   0  0  0  0  0  0  0  0  0  0  0  0
   22.1137    8.8108    2.0058 C   0  0  0  0  0  0  0  0  0  0  0  0
   22.1137   23.5268    2.0058 C   0  0  0  0  0  0  0  0  0  0  0  0
    7.5531    8.9891    0.6611 C   0  0  0  0  0  0  0  0  0  0  0  0
    7.5531   23.7051    0.6611 C   0  0  0  0  0  0  0  0  0  0  0  0
   22.2691    8.9891    0.6611 C   0  0  0  0  0  0  0  0  0  0  0  0
   22.2691   23.7051    0.6611 C   0  0  0  0  0  0  0  0  0  0  0  0
    7.6092    7.8724   -0.2073 C   0  0  0  0  0  0  0  0  0  0  0  0
    7.6092    7.8724   14.5087 C   0  0  0  0  0  0  0  0  0  0  0  0
    7.6092   22.5884   -0.2073 C   0  0  0  0  0  0  0  0  0  0  0  0
    7.6092   22.5884   14.5087 C   0  0  0  0  0  0  0  0  0  0  0  0
   22.3252    7.8724   -0.2073 C   0  0  0  0  0  0  0  0  0  0  0  0
   22.3252    7.8724   14.5087 C   0  0  0  0  0  0  0  0  0  0  0  0
   22.3252   22.5884   -0.2073 C   0  0  0  0  0  0  0  0  0  0  0  0
   22.3252   22.5884   14.5087 C   0  0  0  0  0  0  0  0  0  0  0  0
    7.6475    8.0181   13.1089 C   0  0  0  0  0  0  0  0  0  0  0  0
    7.6475   22.7341   13.1089 C   0  0  0  0  0  0  0  0  0  0  0  0
   22.3635    8.0181   13.1089 C   0  0  0  0  0  0  0  0  0  0  0  0
   22.3635   22.7341   13.1089 C   0  0  0  0  0  0  0  0  0  0  0  0
    1.8663   13.5153   13.2238 C   0  0  0  0  0  0  0  0  0  0  0  0
    1.8663   28.2313   13.2238 C   0  0  0  0  0  0  0  0  0  0  0  0
   16.5823   13.5153   13.2238 C   0  0  0  0  0  0  0  0  0  0  0  0
   16.5823   28.2313   13.2238 C   0  0  0  0  0  0  0  0  0  0  0  0
    3.3388   13.6919   13.1463 C   0  0  0  0  0  0  0  0  0  0  0  0
    3.3388   -1.0241   13.1463 C   0  0  0  0  0  0  0  0  0  0  0  0
    3.3388   28.4079   13.1463 C   0  0  0  0  0  0  0  0  0  0  0  0
   18.0548   13.6919   13.1463 C   0  0  0  0  0  0  0  0  0  0  0  0
   18.0548   -1.0241   13.1463 C   0  0  0  0  0  0  0  0  0  0  0  0
   18.0548   28.4079   13.1463 C   0  0  0  0  0  0  0  0  0  0  0  0
    3.8836    0.2698   13.2616 C   0  0  0  0  0  0  0  0  0  0  0  0
    3.8836   29.7018   13.2616 C   0  0  0  0  0  0  0  0  0  0  0  0
    3.8836   14.9858   13.2616 C   0  0  0  0  0  0  0  0  0  0  0  0
   18.5996    0.2698   13.2616 C   0  0  0  0  0  0  0  0  0  0  0  0
   18.5996   29.7018   13.2616 C   0  0  0  0  0  0  0  0  0  0  0  0
   18.5996   14.9858   13.2616 C   0  0  0  0  0  0  0  0  0  0  0  0
    5.2345    0.4410   13.1722 C   0  0  0  0  0  0  0  0  0  0  0  0
    5.2345   29.8730   13.1722 C   0  0  0  0  0  0  0  0  0  0  0  0
    5.2345   15.1570   13.1722 C   0  0  0  0  0  0  0  0  0  0  0  0
   19.9505    0.4410   13.1722 C   0  0  0  0  0  0  0  0  0  0  0  0
   19.9505   29.8730   13.1722 C   0  0  0  0  0  0  0  0  0  0  0  0
   19.9505   15.1570   13.1722 C   0  0  0  0  0  0  0  0  0  0  0  0
    6.0972   14.0432   13.0587 C   0  0  0  0  0  0  0  0  0  0  0  0
    6.0972   -0.6728   13.0587 C   0  0  0  0  0  0  0  0  0  0  0  0
    6.0972   28.7592   13.0587 C   0  0  0  0  0  0  0  0  0  0  0  0
   20.8132   14.0432   13.0587 C   0  0  0  0  0  0  0  0  0  0  0  0
   20.8132   -0.6728   13.0587 C   0  0  0  0  0  0  0  0  0  0  0  0
   20.8132   28.7592   13.0587 C   0  0  0  0  0  0  0  0  0  0  0  0
    7.4970   14.1850   13.0794 C   0  0  0  0  0  0  0  0  0  0  0  0
    7.4970   -0.5310   13.0794 C   0  0  0  0  0  0  0  0  0  0  0  0
    7.4970   28.9010   13.0794 C   0  0  0  0  0  0  0  0  0  0  0  0
   22.2130   14.1850   13.0794 C   0  0  0  0  0  0  0  0  0  0  0  0
   22.2130   -0.5310   13.0794 C   0  0  0  0  0  0  0  0  0  0  0  0
   22.2130   28.9010   13.0794 C   0  0  0  0  0  0  0  0  0  0  0  0
    8.2992   13.0725   13.0992 C   0  0  0  0  0  0  0  0  0  0  0  0
    8.2992   27.7885   13.0992 C   0  0  0  0  0  0  0  0  0  0  0  0
   23.0152   13.0725   13.0992 C   0  0  0  0  0  0  0  0  0  0  0  0
   23.0152   27.7885   13.0992 C   0  0  0  0  0  0  0  0  0  0  0  0
    9.7644   13.2156   13.2371 C   0  0  0  0  0  0  0  0  0  0  0  0
    9.7644   27.9316   13.2371 C   0  0  0  0  0  0  0  0  0  0  0  0
   24.4804   13.2156   13.2371 C   0  0  0  0  0  0  0  0  0  0  0  0
   24.4804   27.9316   13.2371 C   0  0  0  0  0  0  0  0  0  0  0  0
    7.7571   11.7762   13.0219 C   0  0  0  0  0  0  0  0  0  0  0  0
    7.7571   26.4922   13.0219 C   0  0  0  0  0  0  0  0  0  0  0  0
   22.4731   11.7762   13.0219 C   0  0  0  0  0  0  0  0  0  0  0  0
   22.4731   26.4922   13.0219 C   0  0  0  0  0  0  0  0  0  0  0  0
    6.4059   11.6142   12.9282 C   0  0  0  0  0  0  0  0  0  0  0  0
    6.4059   26.3302   12.9282 C   0  0  0  0  0  0  0  0  0  0  0  0
   21.1219   11.6142   12.9282 C   0  0  0  0  0  0  0  0  0  0  0  0
   21.1219   26.3302   12.9282 C   0  0  0  0  0  0  0  0  0  0  0  0
    5.5441   12.7342   12.9745 C   0  0  0  0  0  0  0  0  0  0  0  0
    5.5441   27.4502   12.9745 C   0  0  0  0  0  0  0  0  0  0  0  0
   20.2601   12.7342   12.9745 C   0  0  0  0  0  0  0  0  0  0  0  0
   20.2601   27.4502   12.9745 C   0  0  0  0  0  0  0  0  0  0  0  0
    4.1435   12.5944   12.9748 C   0  0  0  0  0  0  0  0  0  0  0  0
    4.1435   27.3104   12.9748 C   0  0  0  0  0  0  0  0  0  0  0  0
   18.8595   12.5944   12.9748 C   0  0  0  0  0  0  0  0  0  0  0  0
   18.8595   27.3104   12.9748 C   0  0  0  0  0  0  0  0  0  0  0  0
   13.0625    2.0246   13.2229 C   0  0  0  0  0  0  0  0  0  0  0  0
   13.0625   16.7406   13.2229 C   0  0  0  0  0  0  0  0  0  0  0  0
   27.7785    2.0246   13.2229 C   0  0  0  0  0  0  0  0  0  0  0  0
   27.7785   16.7406   13.2229 C   0  0  0  0  0  0  0  0  0  0  0  0
   12.8940    3.4882   13.3072 C   0  0  0  0  0  0  0  0  0  0  0  0
   12.8940   18.2042   13.3072 C   0  0  0  0  0  0  0  0  0  0  0  0
   27.6100    3.4882   13.3072 C   0  0  0  0  0  0  0  0  0  0  0  0
   27.6100   18.2042   13.3072 C   0  0  0  0  0  0  0  0  0  0  0  0
   11.6042    4.0462   13.2070 C   0  0  0  0  0  0  0  0  0  0  0  0
   11.6042   18.7622   13.2070 C   0  0  0  0  0  0  0  0  0  0  0  0
   26.3202    4.0462   13.2070 C   0  0  0  0  0  0  0  0  0  0  0  0
   26.3202   18.7622   13.2070 C   0  0  0  0  0  0  0  0  0  0  0  0
   11.4570    5.4008   13.2613 C   0  0  0  0  0  0  0  0  0  0  0  0
   11.4570   20.1168   13.2613 C   0  0  0  0  0  0  0  0  0  0  0  0
   26.1730    5.4008   13.2613 C   0  0  0  0  0  0  0  0  0  0  0  0
   26.1730   20.1168   13.2613 C   0  0  0  0  0  0  0  0  0  0  0  0
   12.5909    6.2426   13.3143 C   0  0  0  0  0  0  0  0  0  0  0  0
   12.5909   20.9586   13.3143 C   0  0  0  0  0  0  0  0  0  0  0  0
   27.3069    6.2426   13.3143 C   0  0  0  0  0  0  0  0  0  0  0  0
   27.3069   20.9586   13.3143 C   0  0  0  0  0  0  0  0  0  0  0  0
   12.4728    7.6418   13.2891 C   0  0  0  0  0  0  0  0  0  0  0  0
   12.4728   22.3578   13.2891 C   0  0  0  0  0  0  0  0  0  0  0  0
   27.1888    7.6418   13.2891 C   0  0  0  0  0  0  0  0  0  0  0  0
   27.1888   22.3578   13.2891 C   0  0  0  0  0  0  0  0  0  0  0  0
   13.5936    8.4259   13.1771 C   0  0  0  0  0  0  0  0  0  0  0  0
   13.5936   23.1419   13.1771 C   0  0  0  0  0  0  0  0  0  0  0  0
   -1.1224    8.4259   13.1771 C   0  0  0  0  0  0  0  0  0  0  0  0
   28.3096    8.4259   13.1771 C   0  0  0  0  0  0  0  0  0  0  0  0
   -1.1224   23.1419   13.1771 C   0  0  0  0  0  0  0  0  0  0  0  0
   28.3096   23.1419   13.1771 C   0  0  0  0  0  0  0  0  0  0  0  0
   13.4357    9.8925   13.0787 C   0  0  0  0  0  0  0  0  0  0  0  0
   13.4357   24.6085   13.0787 C   0  0  0  0  0  0  0  0  0  0  0  0
   28.1517    9.8925   13.0787 C   0  0  0  0  0  0  0  0  0  0  0  0
   28.1517   24.6085   13.0787 C   0  0  0  0  0  0  0  0  0  0  0  0
    0.1673    7.8606   13.1322 C   0  0  0  0  0  0  0  0  0  0  0  0
   29.5993    7.8606   13.1322 C   0  0  0  0  0  0  0  0  0  0  0  0
    0.1673   22.5766   13.1322 C   0  0  0  0  0  0  0  0  0  0  0  0
   29.5993   22.5766   13.1322 C   0  0  0  0  0  0  0  0  0  0  0  0
   14.8833    7.8606   13.1322 C   0  0  0  0  0  0  0  0  0  0  0  0
   14.8833   22.5766   13.1322 C   0  0  0  0  0  0  0  0  0  0  0  0
    0.3110    6.5113   13.2678 C   0  0  0  0  0  0  0  0  0  0  0  0
   29.7430    6.5113   13.2678 C   0  0  0  0  0  0  0  0  0  0  0  0
    0.3110   21.2273   13.2678 C   0  0  0  0  0  0  0  0  0  0  0  0
   29.7430   21.2273   13.2678 C   0  0  0  0  0  0  0  0  0  0  0  0
   15.0270    6.5113   13.2678 C   0  0  0  0  0  0  0  0  0  0  0  0
   15.0270   21.2273   13.2678 C   0  0  0  0  0  0  0  0  0  0  0  0
   13.8932    5.6737   13.3483 C   0  0  0  0  0  0  0  0  0  0  0  0
   13.8932   20.3897   13.3483 C   0  0  0  0  0  0  0  0  0  0  0  0
   -0.8228    5.6737   13.3483 C   0  0  0  0  0  0  0  0  0  0  0  0
   28.6092    5.6737   13.3483 C   0  0  0  0  0  0  0  0  0  0  0  0
   -0.8228   20.3897   13.3483 C   0  0  0  0  0  0  0  0  0  0  0  0
   28.6092   20.3897   13.3483 C   0  0  0  0  0  0  0  0  0  0  0  0
   14.0113    4.2753   13.4057 C   0  0  0  0  0  0  0  0  0  0  0  0
   14.0113   18.9913   13.4057 C   0  0  0  0  0  0  0  0  0  0  0  0
   -0.7047    4.2753   13.4057 C   0  0  0  0  0  0  0  0  0  0  0  0
   28.7273    4.2753   13.4057 C   0  0  0  0  0  0  0  0  0  0  0  0
   -0.7047   18.9913   13.4057 C   0  0  0  0  0  0  0  0  0  0  0  0
   28.7273   18.9913   13.4057 C   0  0  0  0  0  0  0  0  0  0  0  0
   13.1362   13.2360    1.8744 C   0  0  0  0  0  0  0  0  0  0  0  0
   13.1362   27.9520    1.8744 C   0  0  0  0  0  0  0  0  0  0  0  0
   27.8522   13.2360    1.8744 C   0  0  0  0  0  0  0  0  0  0  0  0
   27.8522   27.9520    1.8744 C   0  0  0  0  0  0  0  0  0  0  0  0
   13.1740   13.0892    3.3494 C   0  0  0  0  0  0  0  0  0  0  0  0
   13.1740   27.8052    3.3494 C   0  0  0  0  0  0  0  0  0  0  0  0
   27.8900   13.0892    3.3494 C   0  0  0  0  0  0  0  0  0  0  0  0
   27.8900   27.8052    3.3494 C   0  0  0  0  0  0  0  0  0  0  0  0
   13.0883   11.7903    3.8914 C   0  0  0  0  0  0  0  0  0  0  0  0
   13.0883   26.5063    3.8914 C   0  0  0  0  0  0  0  0  0  0  0  0
   27.8043   11.7903    3.8914 C   0  0  0  0  0  0  0  0  0  0  0  0
   27.8043   26.5063    3.8914 C   0  0  0  0  0  0  0  0  0  0  0  0
   13.1468   11.6151    5.2428 C   0  0  0  0  0  0  0  0  0  0  0  0
   13.1468   26.3311    5.2428 C   0  0  0  0  0  0  0  0  0  0  0  0
   27.8628   11.6151    5.2428 C   0  0  0  0  0  0  0  0  0  0  0  0
   27.8628   26.3311    5.2428 C   0  0  0  0  0  0  0  0  0  0  0  0
   13.2227   12.7333    6.1074 C   0  0  0  0  0  0  0  0  0  0  0  0
   13.2227   27.4493    6.1074 C   0  0  0  0  0  0  0  0  0  0  0  0
   27.9387   12.7333    6.1074 C   0  0  0  0  0  0  0  0  0  0  0  0
   27.9387   27.4493    6.1074 C   0  0  0  0  0  0  0  0  0  0  0  0
   13.2199   12.5901    7.5074 C   0  0  0  0  0  0  0  0  0  0  0  0
   13.2199   27.3061    7.5074 C   0  0  0  0  0  0  0  0  0  0  0  0
   27.9359   12.5901    7.5074 C   0  0  0  0  0  0  0  0  0  0  0  0
   27.9359   27.3061    7.5074 C   0  0  0  0  0  0  0  0  0  0  0  0
   13.1641   13.6859    8.3276 C   0  0  0  0  0  0  0  0  0  0  0  0
   13.1641   -1.0301    8.3276 C   0  0  0  0  0  0  0  0  0  0  0  0
   13.1641   28.4019    8.3276 C   0  0  0  0  0  0  0  0  0  0  0  0
   27.8801   13.6859    8.3276 C   0  0  0  0  0  0  0  0  0  0  0  0
   27.8801   -1.0301    8.3276 C   0  0  0  0  0  0  0  0  0  0  0  0
   27.8801   28.4019    8.3276 C   0  0  0  0  0  0  0  0  0  0  0  0
   13.0896   13.4589    9.7937 C   0  0  0  0  0  0  0  0  0  0  0  0
   13.0896   28.1749    9.7937 C   0  0  0  0  0  0  0  0  0  0  0  0
   27.8056   13.4589    9.7937 C   0  0  0  0  0  0  0  0  0  0  0  0
   27.8056   28.1749    9.7937 C   0  0  0  0  0  0  0  0  0  0  0  0
   13.1560    0.2728    7.7929 C   0  0  0  0  0  0  0  0  0  0  0  0
   13.1560   29.7048    7.7929 C   0  0  0  0  0  0  0  0  0  0  0  0
   13.1560   14.9888    7.7929 C   0  0  0  0  0  0  0  0  0  0  0  0
   27.8720    0.2728    7.7929 C   0  0  0  0  0  0  0  0  0  0  0  0
   27.8720   29.7048    7.7929 C   0  0  0  0  0  0  0  0  0  0  0  0
   27.8720   14.9888    7.7929 C   0  0  0  0  0  0  0  0  0  0  0  0
   13.2486    0.4462    6.4400 C   0  0  0  0  0  0  0  0  0  0  0  0
   13.2486   29.8782    6.4400 C   0  0  0  0  0  0  0  0  0  0  0  0
   13.2486   15.1622    6.4400 C   0  0  0  0  0  0  0  0  0  0  0  0
   27.9646    0.4462    6.4400 C   0  0  0  0  0  0  0  0  0  0  0  0
   27.9646   29.8782    6.4400 C   0  0  0  0  0  0  0  0  0  0  0  0
   27.9646   15.1622    6.4400 C   0  0  0  0  0  0  0  0  0  0  0  0
   13.2690   14.0494    5.5640 C   0  0  0  0  0  0  0  0  0  0  0  0
   13.2690   -0.6666    5.5640 C   0  0  0  0  0  0  0  0  0  0  0  0
   13.2690   28.7654    5.5640 C   0  0  0  0  0  0  0  0  0  0  0  0
   27.9850   14.0494    5.5640 C   0  0  0  0  0  0  0  0  0  0  0  0
   27.9850   -0.6666    5.5640 C   0  0  0  0  0  0  0  0  0  0  0  0
   27.9850   28.7654    5.5640 C   0  0  0  0  0  0  0  0  0  0  0  0
   13.2899   14.1912    4.1621 C   0  0  0  0  0  0  0  0  0  0  0  0
   13.2899   -0.5248    4.1621 C   0  0  0  0  0  0  0  0  0  0  0  0
   13.2899   28.9072    4.1621 C   0  0  0  0  0  0  0  0  0  0  0  0
   28.0059   14.1912    4.1621 C   0  0  0  0  0  0  0  0  0  0  0  0
   28.0059   -0.5248    4.1621 C   0  0  0  0  0  0  0  0  0  0  0  0
   28.0059   28.9072    4.1621 C   0  0  0  0  0  0  0  0  0  0  0  0
    7.3927    7.3094    7.4146 O   0  0  0  0  0  0  0  0  0  0  0  0
    7.3927   22.0254    7.4146 O   0  0  0  0  0  0  0  0  0  0  0  0
   22.1087    7.3094    7.4146 O   0  0  0  0  0  0  0  0  0  0  0  0
   22.1087   22.0254    7.4146 O   0  0  0  0  0  0  0  0  0  0  0  0
   10.2460    6.6230    6.7281 O   0  0  0  0  0  0  0  0  0  0  0  0
   10.2460   21.3390    6.7281 O   0  0  0  0  0  0  0  0  0  0  0  0
   24.9620    6.6230    6.7281 O   0  0  0  0  0  0  0  0  0  0  0  0
   24.9620   21.3390    6.7281 O   0  0  0  0  0  0  0  0  0  0  0  0
   10.1470    8.1244    8.3751 O   0  0  0  0  0  0  0  0  0  0  0  0
   10.1470   22.8404    8.3751 O   0  0  0  0  0  0  0  0  0  0  0  0
   24.8630    8.1244    8.3751 O   0  0  0  0  0  0  0  0  0  0  0  0
   24.8630   22.8404    8.3751 O   0  0  0  0  0  0  0  0  0  0  0  0
    4.4594    8.0196    6.8104 O   0  0  0  0  0  0  0  0  0  0  0  0
    4.4594   22.7356    6.8104 O   0  0  0  0  0  0  0  0  0  0  0  0
   19.1754    8.0196    6.8104 O   0  0  0  0  0  0  0  0  0  0  0  0
   19.1754   22.7356    6.8104 O   0  0  0  0  0  0  0  0  0  0  0  0
    4.5825    6.2427    8.1481 O   0  0  0  0  0  0  0  0  0  0  0  0
    4.5825   20.9587    8.1481 O   0  0  0  0  0  0  0  0  0  0  0  0
   19.2985    6.2427    8.1481 O   0  0  0  0  0  0  0  0  0  0  0  0
   19.2985   20.9587    8.1481 O   0  0  0  0  0  0  0  0  0  0  0  0
    6.4164   10.0938    6.6822 O   0  0  0  0  0  0  0  0  0  0  0  0
    6.4164   24.8098    6.6822 O   0  0  0  0  0  0  0  0  0  0  0  0
   21.1324   10.0938    6.6822 O   0  0  0  0  0  0  0  0  0  0  0  0
   21.1324   24.8098    6.6822 O   0  0  0  0  0  0  0  0  0  0  0  0
    8.1011   10.1888    8.1450 O   0  0  0  0  0  0  0  0  0  0  0  0
    8.1011   24.9048    8.1450 O   0  0  0  0  0  0  0  0  0  0  0  0
   22.8171   10.1888    8.1450 O   0  0  0  0  0  0  0  0  0  0  0  0
   22.8171   24.9048    8.1450 O   0  0  0  0  0  0  0  0  0  0  0  0
    8.4120    4.5035    6.5692 O   0  0  0  0  0  0  0  0  0  0  0  0
    8.4120   19.2195    6.5692 O   0  0  0  0  0  0  0  0  0  0  0  0
   23.1280    4.5035    6.5692 O   0  0  0  0  0  0  0  0  0  0  0  0
   23.1280   19.2195    6.5692 O   0  0  0  0  0  0  0  0  0  0  0  0
    6.7021    4.3746    7.9931 O   0  0  0  0  0  0  0  0  0  0  0  0
    6.7021   19.0906    7.9931 O   0  0  0  0  0  0  0  0  0  0  0  0
   21.4181    4.3746    7.9931 O   0  0  0  0  0  0  0  0  0  0  0  0
   21.4181   19.0906    7.9931 O   0  0  0  0  0  0  0  0  0  0  0  0
    6.7720    6.2556   10.1708 O   0  0  0  0  0  0  0  0  0  0  0  0
    6.7720   20.9716   10.1708 O   0  0  0  0  0  0  0  0  0  0  0  0
   21.4880    6.2556   10.1708 O   0  0  0  0  0  0  0  0  0  0  0  0
   21.4880   20.9716   10.1708 O   0  0  0  0  0  0  0  0  0  0  0  0
    7.8951    8.1756   10.3282 O   0  0  0  0  0  0  0  0  0  0  0  0
    7.8951   22.8916   10.3282 O   0  0  0  0  0  0  0  0  0  0  0  0
   22.6111    8.1756   10.3282 O   0  0  0  0  0  0  0  0  0  0  0  0
   22.6111   22.8916   10.3282 O   0  0  0  0  0  0  0  0  0  0  0  0
    6.4467    8.0097    4.6233 O   0  0  0  0  0  0  0  0  0  0  0  0
    6.4467   22.7257    4.6233 O   0  0  0  0  0  0  0  0  0  0  0  0
   21.1627    8.0097    4.6233 O   0  0  0  0  0  0  0  0  0  0  0  0
   21.1627   22.7257    4.6233 O   0  0  0  0  0  0  0  0  0  0  0  0
    8.1548    6.5776    4.5554 O   0  0  0  0  0  0  0  0  0  0  0  0
    8.1548   21.2936    4.5554 O   0  0  0  0  0  0  0  0  0  0  0  0
   22.8708    6.5776    4.5554 O   0  0  0  0  0  0  0  0  0  0  0  0
   22.8708   21.2936    4.5554 O   0  0  0  0  0  0  0  0  0  0  0  0
   13.2147   13.3254   13.1774 O   0  0  0  0  0  0  0  0  0  0  0  0
   13.2147   28.0414   13.1774 O   0  0  0  0  0  0  0  0  0  0  0  0
   27.9307   13.3254   13.1774 O   0  0  0  0  0  0  0  0  0  0  0  0
   27.9307   28.0414   13.1774 O   0  0  0  0  0  0  0  0  0  0  0  0
    1.3394   12.7400   12.3881 O   0  0  0  0  0  0  0  0  0  0  0  0
    1.3394   27.4560   12.3881 O   0  0  0  0  0  0  0  0  0  0  0  0
   16.0554   12.7400   12.3881 O   0  0  0  0  0  0  0  0  0  0  0  0
   16.0554   27.4560   12.3881 O   0  0  0  0  0  0  0  0  0  0  0  0
    1.2541   14.1453   14.1192 O   0  0  0  0  0  0  0  0  0  0  0  0
    1.2541   -0.5707   14.1192 O   0  0  0  0  0  0  0  0  0  0  0  0
    1.2541   28.8613   14.1192 O   0  0  0  0  0  0  0  0  0  0  0  0
   15.9701   14.1453   14.1192 O   0  0  0  0  0  0  0  0  0  0  0  0
   15.9701   -0.5707   14.1192 O   0  0  0  0  0  0  0  0  0  0  0  0
   15.9701   28.8613   14.1192 O   0  0  0  0  0  0  0  0  0  0  0  0
   10.3037   14.2060   12.6838 O   0  0  0  0  0  0  0  0  0  0  0  0
   10.3037   -0.5100   12.6838 O   0  0  0  0  0  0  0  0  0  0  0  0
   10.3037   28.9220   12.6838 O   0  0  0  0  0  0  0  0  0  0  0  0
   25.0197   14.2060   12.6838 O   0  0  0  0  0  0  0  0  0  0  0  0
   25.0197   -0.5100   12.6838 O   0  0  0  0  0  0  0  0  0  0  0  0
   25.0197   28.9220   12.6838 O   0  0  0  0  0  0  0  0  0  0  0  0
   10.3718   12.3519   13.9158 O   0  0  0  0  0  0  0  0  0  0  0  0
   10.3718   27.0679   13.9158 O   0  0  0  0  0  0  0  0  0  0  0  0
   25.0878   12.3519   13.9158 O   0  0  0  0  0  0  0  0  0  0  0  0
   25.0878   27.0679   13.9158 O   0  0  0  0  0  0  0  0  0  0  0  0
   12.3187    1.4241   12.4070 O   0  0  0  0  0  0  0  0  0  0  0  0
   12.3187   16.1401   12.4070 O   0  0  0  0  0  0  0  0  0  0  0  0
   27.0347    1.4241   12.4070 O   0  0  0  0  0  0  0  0  0  0  0  0
   27.0347   16.1401   12.4070 O   0  0  0  0  0  0  0  0  0  0  0  0
   13.9581    1.4884   13.9188 O   0  0  0  0  0  0  0  0  0  0  0  0
   13.9581   16.2044   13.9188 O   0  0  0  0  0  0  0  0  0  0  0  0
   -0.7579    1.4884   13.9188 O   0  0  0  0  0  0  0  0  0  0  0  0
   28.6741    1.4884   13.9188 O   0  0  0  0  0  0  0  0  0  0  0  0
   -0.7579   16.2044   13.9188 O   0  0  0  0  0  0  0  0  0  0  0  0
   28.6741   16.2044   13.9188 O   0  0  0  0  0  0  0  0  0  0  0  0
   14.2488   10.5176   12.3541 O   0  0  0  0  0  0  0  0  0  0  0  0
   14.2488   25.2336   12.3541 O   0  0  0  0  0  0  0  0  0  0  0  0
   -0.4672   10.5176   12.3541 O   0  0  0  0  0  0  0  0  0  0  0  0
   28.9648   10.5176   12.3541 O   0  0  0  0  0  0  0  0  0  0  0  0
   -0.4672   25.2336   12.3541 O   0  0  0  0  0  0  0  0  0  0  0  0
   28.9648   25.2336   12.3541 O   0  0  0  0  0  0  0  0  0  0  0  0
   12.4873   10.4126   13.7175 O   0  0  0  0  0  0  0  0  0  0  0  0
   12.4873   25.1286   13.7175 O   0  0  0  0  0  0  0  0  0  0  0  0
   27.2033   10.4126   13.7175 O   0  0  0  0  0  0  0  0  0  0  0  0
   27.2033   25.1286   13.7175 O   0  0  0  0  0  0  0  0  0  0  0  0
   12.5633   12.3272    1.2200 O   0  0  0  0  0  0  0  0  0  0  0  0
   12.5633   27.0432    1.2200 O   0  0  0  0  0  0  0  0  0  0  0  0
   27.2793   12.3272    1.2200 O   0  0  0  0  0  0  0  0  0  0  0  0
   27.2793   27.0432    1.2200 O   0  0  0  0  0  0  0  0  0  0  0  0
   13.6742   14.2534    1.3690 O   0  0  0  0  0  0  0  0  0  0  0  0
   13.6742   -0.4626    1.3690 O   0  0  0  0  0  0  0  0  0  0  0  0
   13.6742   28.9694    1.3690 O   0  0  0  0  0  0  0  0  0  0  0  0
   -1.0418   14.2534    1.3690 O   0  0  0  0  0  0  0  0  0  0  0  0
   28.3902   14.2534    1.3690 O   0  0  0  0  0  0  0  0  0  0  0  0
   -1.0418   -0.4626    1.3690 O   0  0  0  0  0  0  0  0  0  0  0  0
   -1.0418   28.9694    1.3690 O   0  0  0  0  0  0  0  0  0  0  0  0
   28.3902   -0.4626    1.3690 O   0  0  0  0  0  0  0  0  0  0  0  0
   28.3902   28.9694    1.3690 O   0  0  0  0  0  0  0  0  0  0  0  0
   12.1956   14.0766   10.4217 O   0  0  0  0  0  0  0  0  0  0  0  0
   12.1956   -0.6394   10.4217 O   0  0  0  0  0  0  0  0  0  0  0  0
   12.1956   28.7926   10.4217 O   0  0  0  0  0  0  0  0  0  0  0  0
   26.9116   14.0766   10.4217 O   0  0  0  0  0  0  0  0  0  0  0  0
   26.9116   -0.6394   10.4217 O   0  0  0  0  0  0  0  0  0  0  0  0
   26.9116   28.7926   10.4217 O   0  0  0  0  0  0  0  0  0  0  0  0
   13.9025   12.6432   10.2935 O   0  0  0  0  0  0  0  0  0  0  0  0
   13.9025   27.3592   10.2935 O   0  0  0  0  0  0  0  0  0  0  0  0
   -0.8135   12.6432   10.2935 O   0  0  0  0  0  0  0  0  0  0  0  0
   28.6185   12.6432   10.2935 O   0  0  0  0  0  0  0  0  0  0  0  0
   -0.8135   27.3592   10.2935 O   0  0  0  0  0  0  0  0  0  0  0  0
   28.6185   27.3592   10.2935 O   0  0  0  0  0  0  0  0  0  0  0  0
  1569  1  0  0  0  0
  1573  1  0  0  0  0
  1597  1  0  0  0  0
  1617  1  0  0  0  0
  2570  1  0  0  0  0
  2574  1  0  0  0  0
  2598  1  0  0  0  0
  2618  1  0  0  0  0
  3571  1  0  0  0  0
  3575  1  0  0  0  0
  3599  1  0  0  0  0
  3619  1  0  0  0  0
  4572  1  0  0  0  0
  4576  1  0  0  0  0
  4600  1  0  0  0  0
  4620  1  0  0  0  0
  5569  1  0  0  0  0
  5581  1  0  0  0  0
  5589  1  0  0  0  0
  5613  1  0  0  0  0
  6570  1  0  0  0  0
  6582  1  0  0  0  0
  6590  1  0  0  0  0
  6614  1  0  0  0  0
  7571  1  0  0  0  0
  7583  1  0  0  0  0
  7591  1  0  0  0  0
  7615  1  0  0  0  0
  8572  1  0  0  0  0
  8584  1  0  0  0  0
  8592  1  0  0  0  0
  8616  1  0  0  0  0
  9569  1  0  0  0  0
  9585  1  0  0  0  0
  9601  1  0  0  0  0
  9605  1  0  0  0  0
 10570  1  0  0  0  0
 10586  1  0  0  0  0
 10602  1  0  0  0  0
 10606  1  0  0  0  0
 11571  1  0  0  0  0
 11587  1  0  0  0  0
 11603  1  0  0  0  0
 11607  1  0  0  0  0
 12572  1  0  0  0  0
 12588  1  0  0  0  0
 12604  1  0  0  0  0
 12608  1  0  0  0  0
 13569  1  0  0  0  0
 13577  1  0  0  0  0
 13593  1  0  0  0  0
 13609  1  0  0  0  0
 14570  1  0  0  0  0
 14578  1  0  0  0  0
 14594  1  0  0  0  0
 14610  1  0  0  0  0
 15571  1  0  0  0  0
 15579  1  0  0  0  0
 15595  1  0  0  0  0
 15611  1  0  0  0  0
 16572  1  0  0  0  0
 16580  1  0  0  0  0
 16596  1  0  0  0  0
 16612  1  0  0  0  0
 17621  1  0  0  0  0
 17627  1  0  0  0  0
 17655  1  0  0  0  0
 17684  1  0  0  0  0
 18622  1  0  0  0  0
 18628  1  0  0  0  0
 18656  1  0  0  0  0
 18685  1  0  0  0  0
 19625  1  0  0  0  0
 19657  1  0  0  0  0
 19686  1  0  0  0  0
 20623  1  0  0  0  0
 20658  1  0  0  0  0
 20687  1  0  0  0  0
 21626  1  0  0  0  0
 21659  1  0  0  0  0
 21688  1  0  0  0  0
 22624  1  0  0  0  0
 22660  1  0  0  0  0
 22689  1  0  0  0  0
 23621  1  0  0  0  0
 23635  1  0  0  0  0
 23646  1  0  0  0  0
 23678  1  0  0  0  0
 24636  1  0  0  0  0
 24645  1  0  0  0  0
 24679  1  0  0  0  0
 25622  1  0  0  0  0
 25637  1  0  0  0  0
 25680  1  0  0  0  0
 26623  1  0  0  0  0
 26638  1  0  0  0  0
 26648  1  0  0  0  0
 26681  1  0  0  0  0
 27639  1  0  0  0  0
 27647  1  0  0  0  0
 27682  1  0  0  0  0
 28624  1  0  0  0  0
 28640  1  0  0  0  0
 28683  1  0  0  0  0
 29665  1  0  0  0  0
 30621  1  0  0  0  0
 30641  1  0  0  0  0
 30661  1  0  0  0  0
 31666  1  0  0  0  0
 32622  1  0  0  0  0
 32642  1  0  0  0  0
 32662  1  0  0  0  0
 33667  1  0  0  0  0
 34623  1  0  0  0  0
 34643  1  0  0  0  0
 34663  1  0  0  0  0
 35668  1  0  0  0  0
 36624  1  0  0  0  0
 36644  1  0  0  0  0
 36664  1  0  0  0  0
 37669  1  0  0  0  0
 38621  1  0  0  0  0
 38632  1  0  0  0  0
 38650  1  0  0  0  0
 39670  1  0  0  0  0
 40633  1  0  0  0  0
 40649  1  0  0  0  0
 41671  1  0  0  0  0
 42622  1  0  0  0  0
 42634  1  0  0  0  0
 43672  1  0  0  0  0
 44629  1  0  0  0  0
 44653  1  0  0  0  0
 45673  1  0  0  0  0
 46623  1  0  0  0  0
 46654  1  0  0  0  0
 47674  1  0  0  0  0
 48630  1  0  0  0  0
 48651  1  0  0  0  0
 49675  1  0  0  0  0
 50631  1  0  0  0  0
 51676  1  0  0  0  0
 52652  1  0  0  0  0
 53677  1  0  0  0  0
 54624  1  0  0  0  0
 55231  1  0  0  0  0
 56232  1  0  0  0  0
 57233  1  0  0  0  0
 58234  1  0  0  0  0
 59235  1  0  0  0  0
 60236  1  0  0  0  0
 61237  1  0  0  0  0
 62238  1  0  0  0  0
 63239  1  0  0  0  0
 64240  1  0  0  0  0
 65247  1  0  0  0  0
 66248  1  0  0  0  0
 67249  1  0  0  0  0
 68250  1  0  0  0  0
 69259  1  0  0  0  0
 70260  1  0  0  0  0
 71261  1  0  0  0  0
 72262  1  0  0  0  0
 73263  1  0  0  0  0
 74264  1  0  0  0  0
 75265  1  0  0  0  0
 76266  1  0  0  0  0
 77267  1  0  0  0  0
 78268  1  0  0  0  0
 79275  1  0  0  0  0
 80276  1  0  0  0  0
 81277  1  0  0  0  0
 82278  1  0  0  0  0
 83287  1  0  0  0  0
 84288  1  0  0  0  0
 85289  1  0  0  0  0
 86290  1  0  0  0  0
 87291  1  0  0  0  0
 88292  1  0  0  0  0
 89293  1  0  0  0  0
 90294  1  0  0  0  0
 91295  1  0  0  0  0
 92296  1  0  0  0  0
 93303  1  0  0  0  0
 94304  1  0  0  0  0
 95305  1  0  0  0  0
 96306  1  0  0  0  0
 97315  1  0  0  0  0
 98316  1  0  0  0  0
 99317  1  0  0  0  0
100318  1  0  0  0  0
101319  1  0  0  0  0
102320  1  0  0  0  0
103321  1  0  0  0  0
104322  1  0  0  0  0
105323  1  0  0  0  0
106324  1  0  0  0  0
107331  1  0  0  0  0
108332  1  0  0  0  0
109333  1  0  0  0  0
110334  1  0  0  0  0
111343  1  0  0  0  0
112344  1  0  0  0  0
113345  1  0  0  0  0
114346  1  0  0  0  0
115347  1  0  0  0  0
116348  1  0  0  0  0
117349  1  0  0  0  0
118350  1  0  0  0  0
119351  1  0  0  0  0
120352  1  0  0  0  0
121353  1  0  0  0  0
122354  1  0  0  0  0
123363  1  0  0  0  0
124364  1  0  0  0  0
125365  1  0  0  0  0
126366  1  0  0  0  0
127375  1  0  0  0  0
128376  1  0  0  0  0
129377  1  0  0  0  0
130378  1  0  0  0  0
131379  1  0  0  0  0
132380  1  0  0  0  0
133381  1  0  0  0  0
134382  1  0  0  0  0
135391  1  0  0  0  0
136392  1  0  0  0  0
137393  1  0  0  0  0
138394  1  0  0  0  0
139405  1  0  0  0  0
140406  1  0  0  0  0
141407  1  0  0  0  0
142408  1  0  0  0  0
143409  1  0  0  0  0
144410  1  0  0  0  0
145411  1  0  0  0  0
146413  1  0  0  0  0
147414  1  0  0  0  0
148416  1  0  0  0  0
149424  1  0  0  0  0
150425  1  0  0  0  0
151423  1  0  0  0  0
152427  1  0  0  0  0
153428  1  0  0  0  0
154426  1  0  0  0  0
155437  1  0  0  0  0
156438  1  0  0  0  0
157439  1  0  0  0  0
158440  1  0  0  0  0
159441  1  0  0  0  0
160442  1  0  0  0  0
161443  1  0  0  0  0
162444  1  0  0  0  0
163449  1  0  0  0  0
164450  1  0  0  0  0
165451  1  0  0  0  0
166452  1  0  0  0  0
167461  1  0  0  0  0
168462  1  0  0  0  0
169463  1  0  0  0  0
170464  1  0  0  0  0
171465  1  0  0  0  0
172466  1  0  0  0  0
173467  1  0  0  0  0
174468  1  0  0  0  0
175473  1  0  0  0  0
176474  1  0  0  0  0
177475  1  0  0  0  0
178476  1  0  0  0  0
179487  1  0  0  0  0
180488  1  0  0  0  0
181489  1  0  0  0  0
182490  1  0  0  0  0
183491  1  0  0  0  0
184492  1  0  0  0  0
185493  1  0  0  0  0
186495  1  0  0  0  0
187497  1  0  0  0  0
188498  1  0  0  0  0
189507  1  0  0  0  0
190508  1  0  0  0  0
191509  1  0  0  0  0
192510  1  0  0  0  0
193505  1  0  0  0  0
194506  1  0  0  0  0
195519  1  0  0  0  0
196520  1  0  0  0  0
197521  1  0  0  0  0
198522  1  0  0  0  0
199523  1  0  0  0  0
200524  1  0  0  0  0
201525  1  0  0  0  0
202526  1  0  0  0  0
203531  1  0  0  0  0
204532  1  0  0  0  0
205533  1  0  0  0  0
206534  1  0  0  0  0
207545  1  0  0  0  0
208546  1  0  0  0  0
209547  1  0  0  0  0
210548  1  0  0  0  0
211549  1  0  0  0  0
212550  1  0  0  0  0
213551  1  0  0  0  0
214553  1  0  0  0  0
215554  1  0  0  0  0
216556  1  0  0  0  0
217564  1  0  0  0  0
218565  1  0  0  0  0
219563  1  0  0  0  0
220567  1  0  0  0  0
221568  1  0  0  0  0
222566  1  0  0  0  0
223227  1  0  0  0  0
223573  1  0  0  0  0
223577  1  0  0  0  0
224228  1  0  0  0  0
224574  1  0  0  0  0
224578  1  0  0  0  0
225229  1  0  0  0  0
225575  1  0  0  0  0
225579  1  0  0  0  0
226230  1  0  0  0  0
226576  1  0  0  0  0
226580  1  0  0  0  0
227231  1  0  0  0  0
227275  1  0  0  0  0
228232  1  0  0  0  0
228276  1  0  0  0  0
229233  1  0  0  0  0
229277  1  0  0  0  0
230234  1  0  0  0  0
230278  1  0  0  0  0
231235  1  0  0  0  0
232236  1  0  0  0  0
233238  1  0  0  0  0
234240  1  0  0  0  0
235245  1  0  0  0  0
236246  1  0  0  0  0
237241  1  0  0  0  0
238242  1  0  0  0  0
239243  1  0  0  0  0
240244  1  0  0  0  0
241247  1  0  0  0  0
241271  1  0  0  0  0
242272  1  0  0  0  0
243248  1  0  0  0  0
243273  1  0  0  0  0
244274  1  0  0  0  0
245249  1  0  0  0  0
245269  1  0  0  0  0
246250  1  0  0  0  0
246270  1  0  0  0  0
247251  1  0  0  0  0
248252  1  0  0  0  0
249253  1  0  0  0  0
250254  1  0  0  0  0
251255  1  0  0  0  0
251259  1  0  0  0  0
252256  1  0  0  0  0
252260  1  0  0  0  0
253257  1  0  0  0  0
253261  1  0  0  0  0
254258  1  0  0  0  0
254262  1  0  0  0  0
255581  1  0  0  0  0
255585  1  0  0  0  0
256582  1  0  0  0  0
256586  1  0  0  0  0
257583  1  0  0  0  0
257587  1  0  0  0  0
258584  1  0  0  0  0
258588  1  0  0  0  0
259263  1  0  0  0  0
260265  1  0  0  0  0
261267  1  0  0  0  0
262268  1  0  0  0  0
263271  1  0  0  0  0
264272  1  0  0  0  0
265273  1  0  0  0  0
266274  1  0  0  0  0
267269  1  0  0  0  0
268270  1  0  0  0  0
269275  1  0  0  0  0
270276  1  0  0  0  0
272277  1  0  0  0  0
274278  1  0  0  0  0
279283  1  0  0  0  0
279589  1  0  0  0  0
279593  1  0  0  0  0
280284  1  0  0  0  0
280590  1  0  0  0  0
280594  1  0  0  0  0
281285  1  0  0  0  0
281591  1  0  0  0  0
281595  1  0  0  0  0
282286  1  0  0  0  0
282592  1  0  0  0  0
282596  1  0  0  0  0
283287  1  0  0  0  0
283331  1  0  0  0  0
284288  1  0  0  0  0
284332  1  0  0  0  0
285289  1  0  0  0  0
285333  1  0  0  0  0
286290  1  0  0  0  0
286334  1  0  0  0  0
287291  1  0  0  0  0
288293  1  0  0  0  0
289294  1  0  0  0  0
290296  1  0  0  0  0
291299  1  0  0  0  0
292297  1  0  0  0  0
293298  1  0  0  0  0
294302  1  0  0  0  0
295300  1  0  0  0  0
296301  1  0  0  0  0
297303  1  0  0  0  0
297326  1  0  0  0  0
298327  1  0  0  0  0
299304  1  0  0  0  0
299325  1  0  0  0  0
300305  1  0  0  0  0
300329  1  0  0  0  0
301330  1  0  0  0  0
302306  1  0  0  0  0
302328  1  0  0  0  0
303307  1  0  0  0  0
304308  1  0  0  0  0
305309  1  0  0  0  0
306310  1  0  0  0  0
307311  1  0  0  0  0
307315  1  0  0  0  0
308312  1  0  0  0  0
308316  1  0  0  0  0
309313  1  0  0  0  0
309317  1  0  0  0  0
310314  1  0  0  0  0
310318  1  0  0  0  0
311597  1  0  0  0  0
311601  1  0  0  0  0
312598  1  0  0  0  0
312602  1  0  0  0  0
313599  1  0  0  0  0
313603  1  0  0  0  0
314600  1  0  0  0  0
314604  1  0  0  0  0
315319  1  0  0  0  0
316321  1  0  0  0  0
317322  1  0  0  0  0
318324  1  0  0  0  0
319326  1  0  0  0  0
320327  1  0  0  0  0
321325  1  0  0  0  0
322329  1  0  0  0  0
323330  1  0  0  0  0
324328  1  0  0  0  0
325331  1  0  0  0  0
327332  1  0  0  0  0
328333  1  0  0  0  0
330334  1  0  0  0  0
335339  1  0  0  0  0
335605  1  0  0  0  0
335609  1  0  0  0  0
336340  1  0  0  0  0
336606  1  0  0  0  0
336610  1  0  0  0  0
337341  1  0  0  0  0
337607  1  0  0  0  0
337611  1  0  0  0  0
338342  1  0  0  0  0
338608  1  0  0  0  0
338612  1  0  0  0  0
339343  1  0  0  0  0
339391  1  0  0  0  0
340344  1  0  0  0  0
340392  1  0  0  0  0
341345  1  0  0  0  0
341393  1  0  0  0  0
342346  1  0  0  0  0
342394  1  0  0  0  0
343348  1  0  0  0  0
344350  1  0  0  0  0
345352  1  0  0  0  0
346354  1  0  0  0  0
347355  1  0  0  0  0
348356  1  0  0  0  0
349357  1  0  0  0  0
350358  1  0  0  0  0
351359  1  0  0  0  0
352360  1  0  0  0  0
353361  1  0  0  0  0
354362  1  0  0  0  0
355363  1  0  0  0  0
355383  1  0  0  0  0
356384  1  0  0  0  0
357364  1  0  0  0  0
357385  1  0  0  0  0
358386  1  0  0  0  0
359365  1  0  0  0  0
359387  1  0  0  0  0
360388  1  0  0  0  0
361366  1  0  0  0  0
361389  1  0  0  0  0
362390  1  0  0  0  0
363367  1  0  0  0  0
364368  1  0  0  0  0
365369  1  0  0  0  0
366370  1  0  0  0  0
367371  1  0  0  0  0
367375  1  0  0  0  0
368372  1  0  0  0  0
368376  1  0  0  0  0
369373  1  0  0  0  0
369377  1  0  0  0  0
370374  1  0  0  0  0
370378  1  0  0  0  0
371613  1  0  0  0  0
371617  1  0  0  0  0
372614  1  0  0  0  0
372618  1  0  0  0  0
373615  1  0  0  0  0
373619  1  0  0  0  0
374616  1  0  0  0  0
374620  1  0  0  0  0
375379  1  0  0  0  0
376380  1  0  0  0  0
377381  1  0  0  0  0
378382  1  0  0  0  0
379383  1  0  0  0  0
380385  1  0  0  0  0
381387  1  0  0  0  0
382389  1  0  0  0  0
384391  1  0  0  0  0
386392  1  0  0  0  0
388393  1  0  0  0  0
390394  1  0  0  0  0
395399  1  0  0  0  0
395625  1  0  0  0  0
395629  1  0  0  0  0
396401  1  0  0  0  0
396626  1  0  0  0  0
396631  1  0  0  0  0
397402  1  0  0  0  0
397627  1  0  0  0  0
397632  1  0  0  0  0
398404  1  0  0  0  0
398628  1  0  0  0  0
398634  1  0  0  0  0
399407  1  0  0  0  0
399449  1  0  0  0  0
400405  1  0  0  0  0
401406  1  0  0  0  0
401450  1  0  0  0  0
402410  1  0  0  0  0
402451  1  0  0  0  0
403408  1  0  0  0  0
404409  1  0  0  0  0
404452  1  0  0  0  0
405411  1  0  0  0  0
406412  1  0  0  0  0
407413  1  0  0  0  0
408414  1  0  0  0  0
409415  1  0  0  0  0
410416  1  0  0  0  0
411418  1  0  0  0  0
412419  1  0  0  0  0
413417  1  0  0  0  0
414421  1  0  0  0  0
415422  1  0  0  0  0
416420  1  0  0  0  0
417423  1  0  0  0  0
417445  1  0  0  0  0
418424  1  0  0  0  0
419425  1  0  0  0  0
419446  1  0  0  0  0
420426  1  0  0  0  0
420447  1  0  0  0  0
421427  1  0  0  0  0
422428  1  0  0  0  0
422448  1  0  0  0  0
423429  1  0  0  0  0
425430  1  0  0  0  0
426431  1  0  0  0  0
428432  1  0  0  0  0
429433  1  0  0  0  0
429437  1  0  0  0  0
430434  1  0  0  0  0
430438  1  0  0  0  0
431435  1  0  0  0  0
431439  1  0  0  0  0
432436  1  0  0  0  0
432440  1  0  0  0  0
433635  1  0  0  0  0
433641  1  0  0  0  0
434637  1  0  0  0  0
434642  1  0  0  0  0
435638  1  0  0  0  0
435643  1  0  0  0  0
436640  1  0  0  0  0
436644  1  0  0  0  0
437441  1  0  0  0  0
438442  1  0  0  0  0
439443  1  0  0  0  0
440444  1  0  0  0  0
441445  1  0  0  0  0
442446  1  0  0  0  0
443447  1  0  0  0  0
444448  1  0  0  0  0
445449  1  0  0  0  0
446450  1  0  0  0  0
447451  1  0  0  0  0
448452  1  0  0  0  0
453457  1  0  0  0  0
453645  1  0  0  0  0
453649  1  0  0  0  0
454458  1  0  0  0  0
454646  1  0  0  0  0
454650  1  0  0  0  0
455459  1  0  0  0  0
455647  1  0  0  0  0
455652  1  0  0  0  0
456460  1  0  0  0  0
456648  1  0  0  0  0
456654  1  0  0  0  0
457461  1  0  0  0  0
457505  1  0  0  0  0
458462  1  0  0  0  0
458506  1  0  0  0  0
459463  1  0  0  0  0
459508  1  0  0  0  0
460464  1  0  0  0  0
460510  1  0  0  0  0
461465  1  0  0  0  0
462466  1  0  0  0  0
463467  1  0  0  0  0
464468  1  0  0  0  0
465469  1  0  0  0  0
466470  1  0  0  0  0
467471  1  0  0  0  0
468472  1  0  0  0  0
469473  1  0  0  0  0
469499  1  0  0  0  0
470474  1  0  0  0  0
470500  1  0  0  0  0
471475  1  0  0  0  0
471502  1  0  0  0  0
472476  1  0  0  0  0
472504  1  0  0  0  0
473477  1  0  0  0  0
474478  1  0  0  0  0
475480  1  0  0  0  0
476482  1  0  0  0  0
477483  1  0  0  0  0
477491  1  0  0  0  0
478484  1  0  0  0  0
478492  1  0  0  0  0
479487  1  0  0  0  0
480485  1  0  0  0  0
480488  1  0  0  0  0
481489  1  0  0  0  0
482486  1  0  0  0  0
482490  1  0  0  0  0
483655  1  0  0  0  0
483661  1  0  0  0  0
484656  1  0  0  0  0
484662  1  0  0  0  0
485658  1  0  0  0  0
485663  1  0  0  0  0
486660  1  0  0  0  0
486664  1  0  0  0  0
487493  1  0  0  0  0
488494  1  0  0  0  0
489495  1  0  0  0  0
490496  1  0  0  0  0
491497  1  0  0  0  0
492498  1  0  0  0  0
493501  1  0  0  0  0
494502  1  0  0  0  0
495503  1  0  0  0  0
496504  1  0  0  0  0
497499  1  0  0  0  0
498500  1  0  0  0  0
499505  1  0  0  0  0
500506  1  0  0  0  0
501507  1  0  0  0  0
502508  1  0  0  0  0
503509  1  0  0  0  0
504510  1  0  0  0  0
511515  1  0  0  0  0
511665  1  0  0  0  0
511669  1  0  0  0  0
512516  1  0  0  0  0
512666  1  0  0  0  0
512671  1  0  0  0  0
513517  1  0  0  0  0
513667  1  0  0  0  0
513673  1  0  0  0  0
514518  1  0  0  0  0
514668  1  0  0  0  0
514677  1  0  0  0  0
515519  1  0  0  0  0
515563  1  0  0  0  0
516520  1  0  0  0  0
516565  1  0  0  0  0
517521  1  0  0  0  0
517566  1  0  0  0  0
518522  1  0  0  0  0
518568  1  0  0  0  0
519523  1  0  0  0  0
520524  1  0  0  0  0
521525  1  0  0  0  0
522526  1  0  0  0  0
523527  1  0  0  0  0
524528  1  0  0  0  0
525529  1  0  0  0  0
526530  1  0  0  0  0
527531  1  0  0  0  0
527557  1  0  0  0  0
528532  1  0  0  0  0
528559  1  0  0  0  0
529533  1  0  0  0  0
529560  1  0  0  0  0
530534  1  0  0  0  0
530562  1  0  0  0  0
531535  1  0  0  0  0
532537  1  0  0  0  0
533538  1  0  0  0  0
534540  1  0  0  0  0
535541  1  0  0  0  0
535547  1  0  0  0  0
536545  1  0  0  0  0
537542  1  0  0  0  0
537546  1  0  0  0  0
538543  1  0  0  0  0
538550  1  0  0  0  0
539548  1  0  0  0  0
540544  1  0  0  0  0
540549  1  0  0  0  0
541678  1  0  0  0  0
541684  1  0  0  0  0
542680  1  0  0  0  0
542685  1  0  0  0  0
543681  1  0  0  0  0
543687  1  0  0  0  0
544683  1  0  0  0  0
544689  1  0  0  0  0
545551  1  0  0  0  0
546552  1  0  0  0  0
547553  1  0  0  0  0
548554  1  0  0  0  0
549555  1  0  0  0  0
550556  1  0  0  0  0
551558  1  0  0  0  0
552559  1  0  0  0  0
553557  1  0  0  0  0
554561  1  0  0  0  0
555562  1  0  0  0  0
556560  1  0  0  0  0
557563  1  0  0  0  0
558564  1  0  0  0  0
559565  1  0  0  0  0
560566  1  0  0  0  0
561567  1  0  0  0  0
562568  1  0  0  0  0
M  END
$$$$
