ndc_zn4o_pcu_ip2_off400
AtomForge visual export

445524  0  0  0  0            999 V2000
    8.4776    6.3222    6.3505 Zn  0  0  0  0  0  0  0  0  0  0  0  0
    6.2340    8.2964    6.4335 Zn  0  0  0  0  0  0  0  0  0  0  0  0
    6.4041    6.1371    8.3714 Zn  0  0  0  0  0  0  0  0  0  0  0  0
    8.3223    8.4012    8.5274 Zn  0  0  0  0  0  0  0  0  0  0  0  0
   -0.4360   -2.3768   -2.6231 Zn  0  0  0  0  0  0  0  0  0  0  0  0
   -0.4360   -2.3768   12.0929 Zn  0  0  0  0  0  0  0  0  0  0  0  0
   -0.4360   12.3392   -2.6231 Zn  0  0  0  0  0  0  0  0  0  0  0  0
   -0.4360   12.3392   12.0929 Zn  0  0  0  0  0  0  0  0  0  0  0  0
   14.2800   -2.3768   -2.6231 Zn  0  0  0  0  0  0  0  0  0  0  0  0
   14.2800   -2.3768   12.0929 Zn  0  0  0  0  0  0  0  0  0  0  0  0
   14.2800   12.3392   -2.6231 Zn  0  0  0  0  0  0  0  0  0  0  0  0
   14.2800   12.3392   12.0929 Zn  0  0  0  0  0  0  0  0  0  0  0  0
   -2.6502   -0.3687   -2.4822 Zn  0  0  0  0  0  0  0  0  0  0  0  0
   -2.6502   -0.3687   12.2338 Zn  0  0  0  0  0  0  0  0  0  0  0  0
   -2.6502   14.3473   -2.4822 Zn  0  0  0  0  0  0  0  0  0  0  0  0
   -2.6502   14.3473   12.2338 Zn  0  0  0  0  0  0  0  0  0  0  0  0
   12.0658   -0.3687   -2.4822 Zn  0  0  0  0  0  0  0  0  0  0  0  0
   12.0658   -0.3687   12.2338 Zn  0  0  0  0  0  0  0  0  0  0  0  0
   12.0658   14.3473   -2.4822 Zn  0  0  0  0  0  0  0  0  0  0  0  0
   12.0658   14.3473   12.2338 Zn  0  0  0  0  0  0  0  0  0  0  0  0
   -2.5215   -2.5477   -0.5825 Zn  0  0  0  0  0  0  0  0  0  0  0  0
   -2.5215   -2.5477   14.1335 Zn  0  0  0  0  0  0  0  0  0  0  0  0
   -2.5215   12.1683   -0.5825 Zn  0  0  0  0  0  0  0  0  0  0  0  0
   -2.5215   12.1683   14.1335 Zn  0  0  0  0  0  0  0  0  0  0  0  0
   12.1945   -2.5477   -0.5825 Zn  0  0  0  0  0  0  0  0  0  0  0  0
   12.1945   -2.5477   14.1335 Zn  0  0  0  0  0  0  0  0  0  0  0  0
   12.1945   12.1683   -0.5825 Zn  0  0  0  0  0  0  0  0  0  0  0  0
   12.1945   12.1683   14.1335 Zn  0  0  0  0  0  0  0  0  0  0  0  0
   -0.5710   -0.3073   -0.4147 Zn  0  0  0  0  0  0  0  0  0  0  0  0
   -0.5710   -0.3073   14.3013 Zn  0  0  0  0  0  0  0  0  0  0  0  0
   -0.5710   14.4087   -0.4147 Zn  0  0  0  0  0  0  0  0  0  0  0  0
   -0.5710   14.4087   14.3013 Zn  0  0  0  0  0  0  0  0  0  0  0  0
   14.1450   -0.3073   -0.4147 Zn  0  0  0  0  0  0  0  0  0  0  0  0
   14.1450   -0.3073   14.3013 Zn  0  0  0  0  0  0  0  0  0  0  0  0
   14.1450   14.4087   -0.4147 Zn  0  0  0  0  0  0  0  0  0  0  0  0
   14.1450   14.4087   14.3013 Zn  0  0  0  0  0  0  0  0  0  0  0  0
   -2.5745    9.6516    7.8564 H   0  0  0  0  0  0  0  0  0  0  0  0
   12.1415    9.6516    7.8564 H   0  0  0  0  0  0  0  0  0  0  0  0
   -0.0933    9.9516    7.6642 H   0  0  0  0  0  0  0  0  0  0  0  0
   14.6227    9.9516    7.6642 H   0  0  0  0  0  0  0  0  0  0  0  0
    2.1347    8.9735    7.3536 H   0  0  0  0  0  0  0  0  0  0  0  0
   16.8507    8.9735    7.3536 H   0  0  0  0  0  0  0  0  0  0  0  0
    2.6007    4.7376    7.3478 H   0  0  0  0  0  0  0  0  0  0  0  0
   17.3167    4.7376    7.3478 H   0  0  0  0  0  0  0  0  0  0  0  0
    0.1376    4.4445    7.2081 H   0  0  0  0  0  0  0  0  0  0  0  0
   14.8536    4.4445    7.2081 H   0  0  0  0  0  0  0  0  0  0  0  0
   -2.1524    5.4711    7.1912 H   0  0  0  0  0  0  0  0  0  0  0  0
   12.5636    5.4711    7.1912 H   0  0  0  0  0  0  0  0  0  0  0  0
    4.9326   -2.6273    7.2594 H   0  0  0  0  0  0  0  0  0  0  0  0
    4.9326   12.0887    7.2594 H   0  0  0  0  0  0  0  0  0  0  0  0
    4.6667   -0.1503    7.3633 H   0  0  0  0  0  0  0  0  0  0  0  0
    4.6667   14.5657    7.3633 H   0  0  0  0  0  0  0  0  0  0  0  0
    5.6882    2.0832    7.5092 H   0  0  0  0  0  0  0  0  0  0  0  0
    5.6882   16.7992    7.5092 H   0  0  0  0  0  0  0  0  0  0  0  0
    9.9166    2.4958    7.1959 H   0  0  0  0  0  0  0  0  0  0  0  0
    9.9166   17.2118    7.1959 H   0  0  0  0  0  0  0  0  0  0  0  0
   10.1937    0.0272    7.4544 H   0  0  0  0  0  0  0  0  0  0  0  0
   10.1937   14.7432    7.4544 H   0  0  0  0  0  0  0  0  0  0  0  0
    9.1598   -2.2098    7.6553 H   0  0  0  0  0  0  0  0  0  0  0  0
    9.1598   12.5062    7.6553 H   0  0  0  0  0  0  0  0  0  0  0  0
    7.2863    4.8023   -2.5828 H   0  0  0  0  0  0  0  0  0  0  0  0
    7.2863    4.8023   12.1332 H   0  0  0  0  0  0  0  0  0  0  0  0
    7.4227    4.4514   -0.1259 H   0  0  0  0  0  0  0  0  0  0  0  0
    7.4227    4.4514   14.5901 H   0  0  0  0  0  0  0  0  0  0  0  0
    7.5105    5.4241    2.1745 H   0  0  0  0  0  0  0  0  0  0  0  0
    7.5105    5.4241   16.8905 H   0  0  0  0  0  0  0  0  0  0  0  0
    7.2749    9.6471    2.6761 H   0  0  0  0  0  0  0  0  0  0  0  0
    7.2749    9.6471   17.3921 H   0  0  0  0  0  0  0  0  0  0  0  0
    7.5952    9.9849    0.2435 H   0  0  0  0  0  0  0  0  0  0  0  0
    7.5952    9.9849   14.9595 H   0  0  0  0  0  0  0  0  0  0  0  0
    7.7444    8.9922   -2.0572 H   0  0  0  0  0  0  0  0  0  0  0  0
    7.7444    8.9922   12.6588 H   0  0  0  0  0  0  0  0  0  0  0  0
    3.2105    1.1014   -1.3131 H   0  0  0  0  0  0  0  0  0  0  0  0
    3.2105    1.1014   13.4029 H   0  0  0  0  0  0  0  0  0  0  0  0
    3.2105   15.8174   -1.3131 H   0  0  0  0  0  0  0  0  0  0  0  0
    3.2105   15.8174   13.4029 H   0  0  0  0  0  0  0  0  0  0  0  0
    5.6646    1.4300   -1.4957 H   0  0  0  0  0  0  0  0  0  0  0  0
    5.6646    1.4300   13.2203 H   0  0  0  0  0  0  0  0  0  0  0  0
    5.6646   16.1460   -1.4957 H   0  0  0  0  0  0  0  0  0  0  0  0
    5.6646   16.1460   13.2203 H   0  0  0  0  0  0  0  0  0  0  0  0
    7.9454    0.4502   -1.5940 H   0  0  0  0  0  0  0  0  0  0  0  0
    7.9454    0.4502   13.1220 H   0  0  0  0  0  0  0  0  0  0  0  0
    7.9454   15.1662   -1.5940 H   0  0  0  0  0  0  0  0  0  0  0  0
    7.9454   15.1662   13.1220 H   0  0  0  0  0  0  0  0  0  0  0  0
    8.4503   10.9478   -1.6923 H   0  0  0  0  0  0  0  0  0  0  0  0
    8.4503   10.9478   13.0237 H   0  0  0  0  0  0  0  0  0  0  0  0
    5.9756   10.6264   -1.8612 H   0  0  0  0  0  0  0  0  0  0  0  0
    5.9756   10.6264   12.8548 H   0  0  0  0  0  0  0  0  0  0  0  0
    3.6988   -3.1001   -1.8391 H   0  0  0  0  0  0  0  0  0  0  0  0
    3.6988   -3.1001   12.8769 H   0  0  0  0  0  0  0  0  0  0  0  0
    3.6988   11.6159   -1.8391 H   0  0  0  0  0  0  0  0  0  0  0  0
    3.6988   11.6159   12.8769 H   0  0  0  0  0  0  0  0  0  0  0  0
   10.7621    3.3790   -1.6097 H   0  0  0  0  0  0  0  0  0  0  0  0
   10.7621    3.3790   13.1063 H   0  0  0  0  0  0  0  0  0  0  0  0
   10.4797    5.8589   -1.4907 H   0  0  0  0  0  0  0  0  0  0  0  0
   10.4797    5.8589   13.2253 H   0  0  0  0  0  0  0  0  0  0  0  0
   -3.2206    8.0975   -1.4017 H   0  0  0  0  0  0  0  0  0  0  0  0
   -3.2206    8.0975   13.3143 H   0  0  0  0  0  0  0  0  0  0  0  0
   11.4954    8.0975   -1.4017 H   0  0  0  0  0  0  0  0  0  0  0  0
   11.4954    8.0975   13.3143 H   0  0  0  0  0  0  0  0  0  0  0  0
    1.0156    8.5139   -1.7160 H   0  0  0  0  0  0  0  0  0  0  0  0
    1.0156    8.5139   13.0000 H   0  0  0  0  0  0  0  0  0  0  0  0
   15.7316    8.5139   -1.7160 H   0  0  0  0  0  0  0  0  0  0  0  0
   15.7316    8.5139   13.0000 H   0  0  0  0  0  0  0  0  0  0  0  0
    1.2881    6.0530   -1.4406 H   0  0  0  0  0  0  0  0  0  0  0  0
    1.2881    6.0530   13.2754 H   0  0  0  0  0  0  0  0  0  0  0  0
   16.0041    6.0530   -1.4406 H   0  0  0  0  0  0  0  0  0  0  0  0
   16.0041    6.0530   13.2754 H   0  0  0  0  0  0  0  0  0  0  0  0
    0.2662    3.8128   -1.2324 H   0  0  0  0  0  0  0  0  0  0  0  0
    0.2662    3.8128   13.4836 H   0  0  0  0  0  0  0  0  0  0  0  0
   14.9822    3.8128   -1.2324 H   0  0  0  0  0  0  0  0  0  0  0  0
   14.9822    3.8128   13.4836 H   0  0  0  0  0  0  0  0  0  0  0  0
   -1.7310   10.9569    3.2133 H   0  0  0  0  0  0  0  0  0  0  0  0
   12.9850   10.9569    3.2133 H   0  0  0  0  0  0  0  0  0  0  0  0
   -1.6075   10.6227    5.6703 H   0  0  0  0  0  0  0  0  0  0  0  0
   13.1085   10.6227    5.6703 H   0  0  0  0  0  0  0  0  0  0  0  0
   -1.4947   -3.1027    7.9601 H   0  0  0  0  0  0  0  0  0  0  0  0
   -1.4947   11.6133    7.9601 H   0  0  0  0  0  0  0  0  0  0  0  0
   13.2213   -3.1027    7.9601 H   0  0  0  0  0  0  0  0  0  0  0  0
   13.2213   11.6133    7.9601 H   0  0  0  0  0  0  0  0  0  0  0  0
   -1.6308    1.1109    8.4687 H   0  0  0  0  0  0  0  0  0  0  0  0
   -1.6308   15.8269    8.4687 H   0  0  0  0  0  0  0  0  0  0  0  0
   13.0852    1.1109    8.4687 H   0  0  0  0  0  0  0  0  0  0  0  0
   13.0852   15.8269    8.4687 H   0  0  0  0  0  0  0  0  0  0  0  0
   -1.4364    1.4404    6.0161 H   0  0  0  0  0  0  0  0  0  0  0  0
   -1.4364   16.1564    6.0161 H   0  0  0  0  0  0  0  0  0  0  0  0
   13.2796    1.4404    6.0161 H   0  0  0  0  0  0  0  0  0  0  0  0
   13.2796   16.1564    6.0161 H   0  0  0  0  0  0  0  0  0  0  0  0
   -1.3474    0.4534    3.7150 H   0  0  0  0  0  0  0  0  0  0  0  0
   -1.3474   15.1694    3.7150 H   0  0  0  0  0  0  0  0  0  0  0  0
   13.3686    0.4534    3.7150 H   0  0  0  0  0  0  0  0  0  0  0  0
   13.3686   15.1694    3.7150 H   0  0  0  0  0  0  0  0  0  0  0  0
   10.7699    7.4219    7.5401 C   0  0  0  0  0  0  0  0  0  0  0  0
   -2.4703    7.5467    7.5058 C   0  0  0  0  0  0  0  0  0  0  0  0
   12.2457    7.5467    7.5058 C   0  0  0  0  0  0  0  0  0  0  0  0
   -1.9048    8.8249    7.6716 C   0  0  0  0  0  0  0  0  0  0  0  0
   12.8112    8.8249    7.6716 C   0  0  0  0  0  0  0  0  0  0  0  0
   -0.5537    8.9798    7.5705 C   0  0  0  0  0  0  0  0  0  0  0  0
   14.1623    8.9798    7.5705 C   0  0  0  0  0  0  0  0  0  0  0  0
    0.2840    7.8580    7.3916 C   0  0  0  0  0  0  0  0  0  0  0  0
   15.0000    7.8580    7.3916 C   0  0  0  0  0  0  0  0  0  0  0  0
    1.6825    7.9933    7.3454 C   0  0  0  0  0  0  0  0  0  0  0  0
   16.3985    7.9933    7.3454 C   0  0  0  0  0  0  0  0  0  0  0  0
    2.4812    6.8788    7.3431 C   0  0  0  0  0  0  0  0  0  0  0  0
   17.1972    6.8788    7.3431 C   0  0  0  0  0  0  0  0  0  0  0  0
    3.9489    7.0542    7.4288 C   0  0  0  0  0  0  0  0  0  0  0  0
    1.9282    5.5826    7.3231 C   0  0  0  0  0  0  0  0  0  0  0  0
   16.6442    5.5826    7.3231 C   0  0  0  0  0  0  0  0  0  0  0  0
    0.5729    5.4314    7.2575 C   0  0  0  0  0  0  0  0  0  0  0  0
   15.2889    5.4314    7.2575 C   0  0  0  0  0  0  0  0  0  0  0  0
   -0.2838    6.5561    7.3065 C   0  0  0  0  0  0  0  0  0  0  0  0
   14.4322    6.5561    7.3065 C   0  0  0  0  0  0  0  0  0  0  0  0
   -1.6866    6.4372    7.3120 C   0  0  0  0  0  0  0  0  0  0  0  0
   13.0294    6.4372    7.3120 C   0  0  0  0  0  0  0  0  0  0  0  0
    7.2008   10.7130    7.4413 C   0  0  0  0  0  0  0  0  0  0  0  0
    7.0647   -2.5325    7.4788 C   0  0  0  0  0  0  0  0  0  0  0  0
    7.0647   12.1835    7.4788 C   0  0  0  0  0  0  0  0  0  0  0  0
    5.7793   -1.9672    7.3641 C   0  0  0  0  0  0  0  0  0  0  0  0
    5.7793   12.7488    7.3641 C   0  0  0  0  0  0  0  0  0  0  0  0
    5.6409   -0.6123    7.4110 C   0  0  0  0  0  0  0  0  0  0  0  0
    5.6409   14.1037    7.4110 C   0  0  0  0  0  0  0  0  0  0  0  0
    6.7779    0.2222    7.4791 C   0  0  0  0  0  0  0  0  0  0  0  0
    6.7779   14.9382    7.4791 C   0  0  0  0  0  0  0  0  0  0  0  0
    6.6624    1.6210    7.4762 C   0  0  0  0  0  0  0  0  0  0  0  0
    6.6624   16.3370    7.4762 C   0  0  0  0  0  0  0  0  0  0  0  0
    7.7853    2.4013    7.3803 C   0  0  0  0  0  0  0  0  0  0  0  0
    7.7853   17.1173    7.3803 C   0  0  0  0  0  0  0  0  0  0  0  0
    7.6281    3.8665    7.3124 C   0  0  0  0  0  0  0  0  0  0  0  0
    9.0734    1.8354    7.3236 C   0  0  0  0  0  0  0  0  0  0  0  0
    9.0734   16.5514    7.3236 C   0  0  0  0  0  0  0  0  0  0  0  0
    9.2160    0.4845    7.4434 C   0  0  0  0  0  0  0  0  0  0  0  0
    9.2160   15.2005    7.4434 C   0  0  0  0  0  0  0  0  0  0  0  0
    8.0786   -0.3509    7.5141 C   0  0  0  0  0  0  0  0  0  0  0  0
    8.0786   14.3651    7.5141 C   0  0  0  0  0  0  0  0  0  0  0  0
    8.1875   -1.7504    7.5726 C   0  0  0  0  0  0  0  0  0  0  0  0
    8.1875   12.9656    7.5726 C   0  0  0  0  0  0  0  0  0  0  0  0
    7.3935    7.1329   10.8223 C   0  0  0  0  0  0  0  0  0  0  0  0
    7.5025    6.9296   -2.4310 C   0  0  0  0  0  0  0  0  0  0  0  0
    7.5025    6.9296   12.2850 C   0  0  0  0  0  0  0  0  0  0  0  0
    7.4060    5.6275   -1.8980 C   0  0  0  0  0  0  0  0  0  0  0  0
    7.4060    5.6275   12.8180 C   0  0  0  0  0  0  0  0  0  0  0  0
    7.4699    5.4458   -0.5467 C   0  0  0  0  0  0  0  0  0  0  0  0
    7.4699    5.4458   14.1693 C   0  0  0  0  0  0  0  0  0  0  0  0
    7.5440    6.5547    0.3312 C   0  0  0  0  0  0  0  0  0  0  0  0
    7.5440    6.5547   15.0472 C   0  0  0  0  0  0  0  0  0  0  0  0
    7.5066    6.4071    1.7318 C   0  0  0  0  0  0  0  0  0  0  0  0
    7.5066    6.4071   16.4478 C   0  0  0  0  0  0  0  0  0  0  0  0
    7.4074    7.5089    2.5421 C   0  0  0  0  0  0  0  0  0  0  0  0
    7.4074    7.5089   17.2581 C   0  0  0  0  0  0  0  0  0  0  0  0
    7.3278    7.3534    4.0170 C   0  0  0  0  0  0  0  0  0  0  0  0
    7.3977    8.8108    2.0058 C   0  0  0  0  0  0  0  0  0  0  0  0
    7.3977    8.8108   16.7218 C   0  0  0  0  0  0  0  0  0  0  0  0
    7.5531    8.9891    0.6611 C   0  0  0  0  0  0  0  0  0  0  0  0
    7.5531    8.9891   15.3771 C   0  0  0  0  0  0  0  0  0  0  0  0
    7.6092    7.8724   -0.2073 C   0  0  0  0  0  0  0  0  0  0  0  0
    7.6092    7.8724   14.5087 C   0  0  0  0  0  0  0  0  0  0  0  0
    7.6475    8.0181   -1.6071 C   0  0  0  0  0  0  0  0  0  0  0  0
    7.6475    8.0181   13.1089 C   0  0  0  0  0  0  0  0  0  0  0  0
    1.8663   -1.2007   -1.4922 C   0  0  0  0  0  0  0  0  0  0  0  0
    1.8663   -1.2007   13.2238 C   0  0  0  0  0  0  0  0  0  0  0  0
    1.8663   13.5153   -1.4922 C   0  0  0  0  0  0  0  0  0  0  0  0
    1.8663   13.5153   13.2238 C   0  0  0  0  0  0  0  0  0  0  0  0
   16.5823   -1.2007   -1.4922 C   0  0  0  0  0  0  0  0  0  0  0  0
   16.5823   -1.2007   13.2238 C   0  0  0  0  0  0  0  0  0  0  0  0
   16.5823   13.5153   -1.4922 C   0  0  0  0  0  0  0  0  0  0  0  0
   16.5823   13.5153   13.2238 C   0  0  0  0  0  0  0  0  0  0  0  0
    3.3388   -1.0241   -1.5697 C   0  0  0  0  0  0  0  0  0  0  0  0
    3.3388   -1.0241   13.1463 C   0  0  0  0  0  0  0  0  0  0  0  0
    3.3388   13.6919   -1.5697 C   0  0  0  0  0  0  0  0  0  0  0  0
    3.3388   13.6919   13.1463 C   0  0  0  0  0  0  0  0  0  0  0  0
    3.8836    0.2698   -1.4544 C   0  0  0  0  0  0  0  0  0  0  0  0
    3.8836    0.2698   13.2616 C   0  0  0  0  0  0  0  0  0  0  0  0
    3.8836   14.9858   -1.4544 C   0  0  0  0  0  0  0  0  0  0  0  0
    3.8836   14.9858   13.2616 C   0  0  0  0  0  0  0  0  0  0  0  0
    5.2345    0.4410   -1.5438 C   0  0  0  0  0  0  0  0  0  0  0  0
    5.2345    0.4410   13.1722 C   0  0  0  0  0  0  0  0  0  0  0  0
    5.2345   15.1570   -1.5438 C   0  0  0  0  0  0  0  0  0  0  0  0
    5.2345   15.1570   13.1722 C   0  0  0  0  0  0  0  0  0  0  0  0
    6.0972   -0.6728   -1.6573 C   0  0  0  0  0  0  0  0  0  0  0  0
    6.0972   -0.6728   13.0587 C   0  0  0  0  0  0  0  0  0  0  0  0
    6.0972   14.0432   -1.6573 C   0  0  0  0  0  0  0  0  0  0  0  0
    6.0972   14.0432   13.0587 C   0  0  0  0  0  0  0  0  0  0  0  0
    7.4970   -0.5310   -1.6366 C   0  0  0  0  0  0  0  0  0  0  0  0
    7.4970   -0.5310   13.0794 C   0  0  0  0  0  0  0  0  0  0  0  0
    7.4970   14.1850   -1.6366 C   0  0  0  0  0  0  0  0  0  0  0  0
    7.4970   14.1850   13.0794 C   0  0  0  0  0  0  0  0  0  0  0  0
    8.2992   -1.6435   -1.6168 C   0  0  0  0  0  0  0  0  0  0  0  0
    8.2992   -1.6435   13.0992 C   0  0  0  0  0  0  0  0  0  0  0  0
    8.2992   13.0725   -1.6168 C   0  0  0  0  0  0  0  0  0  0  0  0
    8.2992   13.0725   13.0992 C   0  0  0  0  0  0  0  0  0  0  0  0
    9.7644   -1.5004   -1.4789 C   0  0  0  0  0  0  0  0  0  0  0  0
    9.7644   -1.5004   13.2371 C   0  0  0  0  0  0  0  0  0  0  0  0
    9.7644   13.2156   -1.4789 C   0  0  0  0  0  0  0  0  0  0  0  0
    9.7644   13.2156   13.2371 C   0  0  0  0  0  0  0  0  0  0  0  0
    7.7571   -2.9398   -1.6941 C   0  0  0  0  0  0  0  0  0  0  0  0
    7.7571   -2.9398   13.0219 C   0  0  0  0  0  0  0  0  0  0  0  0
    7.7571   11.7762   -1.6941 C   0  0  0  0  0  0  0  0  0  0  0  0
    7.7571   11.7762   13.0219 C   0  0  0  0  0  0  0  0  0  0  0  0
    6.4059   -3.1018   -1.7878 C   0  0  0  0  0  0  0  0  0  0  0  0
    6.4059   -3.1018   12.9282 C   0  0  0  0  0  0  0  0  0  0  0  0
    6.4059   11.6142   -1.7878 C   0  0  0  0  0  0  0  0  0  0  0  0
    6.4059   11.6142   12.9282 C   0  0  0  0  0  0  0  0  0  0  0  0
    5.5441   -1.9818   -1.7415 C   0  0  0  0  0  0  0  0  0  0  0  0
    5.5441   -1.9818   12.9745 C   0  0  0  0  0  0  0  0  0  0  0  0
    5.5441   12.7342   -1.7415 C   0  0  0  0  0  0  0  0  0  0  0  0
    5.5441   12.7342   12.9745 C   0  0  0  0  0  0  0  0  0  0  0  0
    4.1435   -2.1216   -1.7412 C   0  0  0  0  0  0  0  0  0  0  0  0
    4.1435   -2.1216   12.9748 C   0  0  0  0  0  0  0  0  0  0  0  0
    4.1435   12.5944   -1.7412 C   0  0  0  0  0  0  0  0  0  0  0  0
    4.1435   12.5944   12.9748 C   0  0  0  0  0  0  0  0  0  0  0  0
   -1.6535    2.0246   -1.4931 C   0  0  0  0  0  0  0  0  0  0  0  0
   -1.6535    2.0246   13.2229 C   0  0  0  0  0  0  0  0  0  0  0  0
   -1.6535   16.7406   -1.4931 C   0  0  0  0  0  0  0  0  0  0  0  0
   -1.6535   16.7406   13.2229 C   0  0  0  0  0  0  0  0  0  0  0  0
   13.0625    2.0246   -1.4931 C   0  0  0  0  0  0  0  0  0  0  0  0
   13.0625    2.0246   13.2229 C   0  0  0  0  0  0  0  0  0  0  0  0
   13.0625   16.7406   -1.4931 C   0  0  0  0  0  0  0  0  0  0  0  0
   13.0625   16.7406   13.2229 C   0  0  0  0  0  0  0  0  0  0  0  0
   -1.8220    3.4882   -1.4088 C   0  0  0  0  0  0  0  0  0  0  0  0
   -1.8220    3.4882   13.3072 C   0  0  0  0  0  0  0  0  0  0  0  0
   12.8940    3.4882   -1.4088 C   0  0  0  0  0  0  0  0  0  0  0  0
   12.8940    3.4882   13.3072 C   0  0  0  0  0  0  0  0  0  0  0  0
   -3.1118    4.0462   -1.5090 C   0  0  0  0  0  0  0  0  0  0  0  0
   -3.1118    4.0462   13.2070 C   0  0  0  0  0  0  0  0  0  0  0  0
   11.6042    4.0462   -1.5090 C   0  0  0  0  0  0  0  0  0  0  0  0
   11.6042    4.0462   13.2070 C   0  0  0  0  0  0  0  0  0  0  0  0
   11.4570    5.4008   -1.4547 C   0  0  0  0  0  0  0  0  0  0  0  0
   11.4570    5.4008   13.2613 C   0  0  0  0  0  0  0  0  0  0  0  0
   -2.1251    6.2426   -1.4017 C   0  0  0  0  0  0  0  0  0  0  0  0
   -2.1251    6.2426   13.3143 C   0  0  0  0  0  0  0  0  0  0  0  0
   12.5909    6.2426   -1.4017 C   0  0  0  0  0  0  0  0  0  0  0  0
   12.5909    6.2426   13.3143 C   0  0  0  0  0  0  0  0  0  0  0  0
   -2.2432    7.6418   -1.4269 C   0  0  0  0  0  0  0  0  0  0  0  0
   -2.2432    7.6418   13.2891 C   0  0  0  0  0  0  0  0  0  0  0  0
   12.4728    7.6418   -1.4269 C   0  0  0  0  0  0  0  0  0  0  0  0
   12.4728    7.6418   13.2891 C   0  0  0  0  0  0  0  0  0  0  0  0
   -1.1224    8.4259   -1.5389 C   0  0  0  0  0  0  0  0  0  0  0  0
   -1.1224    8.4259   13.1771 C   0  0  0  0  0  0  0  0  0  0  0  0
   13.5936    8.4259   -1.5389 C   0  0  0  0  0  0  0  0  0  0  0  0
   13.5936    8.4259   13.1771 C   0  0  0  0  0  0  0  0  0  0  0  0
   -1.2803    9.8925   -1.6373 C   0  0  0  0  0  0  0  0  0  0  0  0
   -1.2803    9.8925   13.0787 C   0  0  0  0  0  0  0  0  0  0  0  0
   13.4357    9.8925   -1.6373 C   0  0  0  0  0  0  0  0  0  0  0  0
   13.4357    9.8925   13.0787 C   0  0  0  0  0  0  0  0  0  0  0  0
    0.1673    7.8606   -1.5838 C   0  0  0  0  0  0  0  0  0  0  0  0
    0.1673    7.8606   13.1322 C   0  0  0  0  0  0  0  0  0  0  0  0
   14.8833    7.8606   -1.5838 C   0  0  0  0  0  0  0  0  0  0  0  0
   14.8833    7.8606   13.1322 C   0  0  0  0  0  0  0  0  0  0  0  0
    0.3110    6.5113   -1.4482 C   0  0  0  0  0  0  0  0  0  0  0  0
    0.3110    6.5113   13.2678 C   0  0  0  0  0  0  0  0  0  0  0  0
   15.0270    6.5113   -1.4482 C   0  0  0  0  0  0  0  0  0  0  0  0
   15.0270    6.5113   13.2678 C   0  0  0  0  0  0  0  0  0  0  0  0
   -0.8228    5.6737   -1.3677 C   0  0  0  0  0  0  0  0  0  0  0  0
   -0.8228    5.6737   13.3483 C   0  0  0  0  0  0  0  0  0  0  0  0
   13.8932    5.6737   -1.3677 C   0  0  0  0  0  0  0  0  0  0  0  0
   13.8932    5.6737   13.3483 C   0  0  0  0  0  0  0  0  0  0  0  0
   -0.7047    4.2753   -1.3103 C   0  0  0  0  0  0  0  0  0  0  0  0
   -0.7047    4.2753   13.4057 C   0  0  0  0  0  0  0  0  0  0  0  0
   14.0113    4.2753   -1.3103 C   0  0  0  0  0  0  0  0  0  0  0  0
   14.0113    4.2753   13.4057 C   0  0  0  0  0  0  0  0  0  0  0  0
   -1.5798   -1.4800    1.8744 C   0  0  0  0  0  0  0  0  0  0  0  0
   -1.5798   -1.4800   16.5904 C   0  0  0  0  0  0  0  0  0  0  0  0
   -1.5798   13.2360    1.8744 C   0  0  0  0  0  0  0  0  0  0  0  0
   -1.5798   13.2360   16.5904 C   0  0  0  0  0  0  0  0  0  0  0  0
   13.1362   -1.4800    1.8744 C   0  0  0  0  0  0  0  0  0  0  0  0
   13.1362   -1.4800   16.5904 C   0  0  0  0  0  0  0  0  0  0  0  0
   13.1362   13.2360    1.8744 C   0  0  0  0  0  0  0  0  0  0  0  0
   13.1362   13.2360   16.5904 C   0  0  0  0  0  0  0  0  0  0  0  0
   -1.5420   -1.6268    3.3494 C   0  0  0  0  0  0  0  0  0  0  0  0
   -1.5420   13.0892    3.3494 C   0  0  0  0  0  0  0  0  0  0  0  0
   13.1740   -1.6268    3.3494 C   0  0  0  0  0  0  0  0  0  0  0  0
   13.1740   13.0892    3.3494 C   0  0  0  0  0  0  0  0  0  0  0  0
   -1.6277   -2.9257    3.8914 C   0  0  0  0  0  0  0  0  0  0  0  0
   -1.6277   11.7903    3.8914 C   0  0  0  0  0  0  0  0  0  0  0  0
   13.0883   -2.9257    3.8914 C   0  0  0  0  0  0  0  0  0  0  0  0
   13.0883   11.7903    3.8914 C   0  0  0  0  0  0  0  0  0  0  0  0
   -1.5692   -3.1009    5.2428 C   0  0  0  0  0  0  0  0  0  0  0  0
   -1.5692   11.6151    5.2428 C   0  0  0  0  0  0  0  0  0  0  0  0
   13.1468   -3.1009    5.2428 C   0  0  0  0  0  0  0  0  0  0  0  0
   13.1468   11.6151    5.2428 C   0  0  0  0  0  0  0  0  0  0  0  0
   -1.4933   -1.9827    6.1074 C   0  0  0  0  0  0  0  0  0  0  0  0
   -1.4933   12.7333    6.1074 C   0  0  0  0  0  0  0  0  0  0  0  0
   13.2227   -1.9827    6.1074 C   0  0  0  0  0  0  0  0  0  0  0  0
   13.2227   12.7333    6.1074 C   0  0  0  0  0  0  0  0  0  0  0  0
   -1.4961   -2.1259    7.5074 C   0  0  0  0  0  0  0  0  0  0  0  0
   -1.4961   12.5901    7.5074 C   0  0  0  0  0  0  0  0  0  0  0  0
   13.2199   -2.1259    7.5074 C   0  0  0  0  0  0  0  0  0  0  0  0
   13.2199   12.5901    7.5074 C   0  0  0  0  0  0  0  0  0  0  0  0
   -1.5519   -1.0301    8.3276 C   0  0  0  0  0  0  0  0  0  0  0  0
   -1.5519   13.6859    8.3276 C   0  0  0  0  0  0  0  0  0  0  0  0
   13.1641   -1.0301    8.3276 C   0  0  0  0  0  0  0  0  0  0  0  0
   13.1641   13.6859    8.3276 C   0  0  0  0  0  0  0  0  0  0  0  0
   -1.6264   -1.2571    9.7937 C   0  0  0  0  0  0  0  0  0  0  0  0
   -1.6264   13.4589    9.7937 C   0  0  0  0  0  0  0  0  0  0  0  0
   13.0896   -1.2571    9.7937 C   0  0  0  0  0  0  0  0  0  0  0  0
   13.0896   13.4589    9.7937 C   0  0  0  0  0  0  0  0  0  0  0  0
   -1.5600    0.2728    7.7929 C   0  0  0  0  0  0  0  0  0  0  0  0
   -1.5600   14.9888    7.7929 C   0  0  0  0  0  0  0  0  0  0  0  0
   13.1560    0.2728    7.7929 C   0  0  0  0  0  0  0  0  0  0  0  0
   13.1560   14.9888    7.7929 C   0  0  0  0  0  0  0  0  0  0  0  0
   -1.4674    0.4462    6.4400 C   0  0  0  0  0  0  0  0  0  0  0  0
   -1.4674   15.1622    6.4400 C   0  0  0  0  0  0  0  0  0  0  0  0
   13.2486    0.4462    6.4400 C   0  0  0  0  0  0  0  0  0  0  0  0
   13.2486   15.1622    6.4400 C   0  0  0  0  0  0  0  0  0  0  0  0
   -1.4470   -0.6666    5.5640 C   0  0  0  0  0  0  0  0  0  0  0  0
   -1.4470   14.0494    5.5640 C   0  0  0  0  0  0  0  0  0  0  0  0
   13.2690   -0.6666    5.5640 C   0  0  0  0  0  0  0  0  0  0  0  0
   13.2690   14.0494    5.5640 C   0  0  0  0  0  0  0  0  0  0  0  0
   -1.4261   -0.5248    4.1621 C   0  0  0  0  0  0  0  0  0  0  0  0
   -1.4261   14.1912    4.1621 C   0  0  0  0  0  0  0  0  0  0  0  0
   13.2899   -0.5248    4.1621 C   0  0  0  0  0  0  0  0  0  0  0  0
   13.2899   14.1912    4.1621 C   0  0  0  0  0  0  0  0  0  0  0  0
    7.3927    7.3094    7.4146 O   0  0  0  0  0  0  0  0  0  0  0  0
   10.2460    6.6230    6.7281 O   0  0  0  0  0  0  0  0  0  0  0  0
   10.1470    8.1244    8.3751 O   0  0  0  0  0  0  0  0  0  0  0  0
    4.4594    8.0196    6.8104 O   0  0  0  0  0  0  0  0  0  0  0  0
    4.5825    6.2427    8.1481 O   0  0  0  0  0  0  0  0  0  0  0  0
    6.4164   10.0938    6.6822 O   0  0  0  0  0  0  0  0  0  0  0  0
    8.1011   10.1888    8.1450 O   0  0  0  0  0  0  0  0  0  0  0  0
    8.4120    4.5035    6.5692 O   0  0  0  0  0  0  0  0  0  0  0  0
    6.7021    4.3746    7.9931 O   0  0  0  0  0  0  0  0  0  0  0  0
    6.7720    6.2556   10.1708 O   0  0  0  0  0  0  0  0  0  0  0  0
    7.8951    8.1756   10.3282 O   0  0  0  0  0  0  0  0  0  0  0  0
    6.4467    8.0097    4.6233 O   0  0  0  0  0  0  0  0  0  0  0  0
    8.1548    6.5776    4.5554 O   0  0  0  0  0  0  0  0  0  0  0  0
   -1.5013   -1.3906   -1.5386 O   0  0  0  0  0  0  0  0  0  0  0  0
   -1.5013   -1.3906   13.1774 O   0  0  0  0  0  0  0  0  0  0  0  0
   -1.5013   13.3254   -1.5386 O   0  0  0  0  0  0  0  0  0  0  0  0
   -1.5013   13.3254   13.1774 O   0  0  0  0  0  0  0  0  0  0  0  0
   13.2147   -1.3906   -1.5386 O   0  0  0  0  0  0  0  0  0  0  0  0
   13.2147   -1.3906   13.1774 O   0  0  0  0  0  0  0  0  0  0  0  0
   13.2147   13.3254   -1.5386 O   0  0  0  0  0  0  0  0  0  0  0  0
   13.2147   13.3254   13.1774 O   0  0  0  0  0  0  0  0  0  0  0  0
    1.3394   -1.9760   -2.3279 O   0  0  0  0  0  0  0  0  0  0  0  0
    1.3394   -1.9760   12.3881 O   0  0  0  0  0  0  0  0  0  0  0  0
    1.3394   12.7400   -2.3279 O   0  0  0  0  0  0  0  0  0  0  0  0
    1.3394   12.7400   12.3881 O   0  0  0  0  0  0  0  0  0  0  0  0
   16.0554   -1.9760   -2.3279 O   0  0  0  0  0  0  0  0  0  0  0  0
   16.0554   -1.9760   12.3881 O   0  0  0  0  0  0  0  0  0  0  0  0
   16.0554   12.7400   -2.3279 O   0  0  0  0  0  0  0  0  0  0  0  0
   16.0554   12.7400   12.3881 O   0  0  0  0  0  0  0  0  0  0  0  0
    1.2541   -0.5707   -0.5968 O   0  0  0  0  0  0  0  0  0  0  0  0
    1.2541   -0.5707   14.1192 O   0  0  0  0  0  0  0  0  0  0  0  0
    1.2541   14.1453   -0.5968 O   0  0  0  0  0  0  0  0  0  0  0  0
    1.2541   14.1453   14.1192 O   0  0  0  0  0  0  0  0  0  0  0  0
   15.9701   -0.5707   -0.5968 O   0  0  0  0  0  0  0  0  0  0  0  0
   15.9701   -0.5707   14.1192 O   0  0  0  0  0  0  0  0  0  0  0  0
   15.9701   14.1453   -0.5968 O   0  0  0  0  0  0  0  0  0  0  0  0
   15.9701   14.1453   14.1192 O   0  0  0  0  0  0  0  0  0  0  0  0
   10.3037   -0.5100   -2.0322 O   0  0  0  0  0  0  0  0  0  0  0  0
   10.3037   -0.5100   12.6838 O   0  0  0  0  0  0  0  0  0  0  0  0
   10.3037   14.2060   -2.0322 O   0  0  0  0  0  0  0  0  0  0  0  0
   10.3037   14.2060   12.6838 O   0  0  0  0  0  0  0  0  0  0  0  0
   10.3718   -2.3641   -0.8002 O   0  0  0  0  0  0  0  0  0  0  0  0
   10.3718   -2.3641   13.9158 O   0  0  0  0  0  0  0  0  0  0  0  0
   10.3718   12.3519   -0.8002 O   0  0  0  0  0  0  0  0  0  0  0  0
   10.3718   12.3519   13.9158 O   0  0  0  0  0  0  0  0  0  0  0  0
   -2.3973    1.4241   -2.3090 O   0  0  0  0  0  0  0  0  0  0  0  0
   -2.3973    1.4241   12.4070 O   0  0  0  0  0  0  0  0  0  0  0  0
   -2.3973   16.1401   -2.3090 O   0  0  0  0  0  0  0  0  0  0  0  0
   -2.3973   16.1401   12.4070 O   0  0  0  0  0  0  0  0  0  0  0  0
   12.3187    1.4241   -2.3090 O   0  0  0  0  0  0  0  0  0  0  0  0
   12.3187    1.4241   12.4070 O   0  0  0  0  0  0  0  0  0  0  0  0
   12.3187   16.1401   -2.3090 O   0  0  0  0  0  0  0  0  0  0  0  0
   12.3187   16.1401   12.4070 O   0  0  0  0  0  0  0  0  0  0  0  0
   -0.7579    1.4884   -0.7972 O   0  0  0  0  0  0  0  0  0  0  0  0
   -0.7579    1.4884   13.9188 O   0  0  0  0  0  0  0  0  0  0  0  0
   -0.7579   16.2044   -0.7972 O   0  0  0  0  0  0  0  0  0  0  0  0
   -0.7579   16.2044   13.9188 O   0  0  0  0  0  0  0  0  0  0  0  0
   13.9581    1.4884   -0.7972 O   0  0  0  0  0  0  0  0  0  0  0  0
   13.9581    1.4884   13.9188 O   0  0  0  0  0  0  0  0  0  0  0  0
   13.9581   16.2044   -0.7972 O   0  0  0  0  0  0  0  0  0  0  0  0
   13.9581   16.2044   13.9188 O   0  0  0  0  0  0  0  0  0  0  0  0
   -0.4672   10.5176   -2.3619 O   0  0  0  0  0  0  0  0  0  0  0  0
   -0.4672   10.5176   12.3541 O   0  0  0  0  0  0  0  0  0  0  0  0
   14.2488   10.5176   -2.3619 O   0  0  0  0  0  0  0  0  0  0  0  0
   14.2488   10.5176   12.3541 O   0  0  0  0  0  0  0  0  0  0  0  0
   -2.2287   10.4126   -0.9985 O   0  0  0  0  0  0  0  0  0  0  0  0
   -2.2287   10.4126   13.7175 O   0  0  0  0  0  0  0  0  0  0  0  0
   12.4873   10.4126   -0.9985 O   0  0  0  0  0  0  0  0  0  0  0  0
   12.4873   10.4126   13.7175 O   0  0  0  0  0  0  0  0  0  0  0  0
   -2.1527   -2.3888    1.2200 O   0  0  0  0  0  0  0  0  0  0  0  0
   -2.1527   -2.3888   15.9360 O   0  0  0  0  0  0  0  0  0  0  0  0
   -2.1527   12.3272    1.2200 O   0  0  0  0  0  0  0  0  0  0  0  0
   -2.1527   12.3272   15.9360 O   0  0  0  0  0  0  0  0  0  0  0  0
   12.5633   -2.3888    1.2200 O   0  0  0  0  0  0  0  0  0  0  0  0
   12.5633   -2.3888   15.9360 O   0  0  0  0  0  0  0  0  0  0  0  0
   12.5633   12.3272    1.2200 O   0  0  0  0  0  0  0  0  0  0  0  0
   12.5633   12.3272   15.9360 O   0  0  0  0  0  0  0  0  0  0  0  0
   -1.0418   -0.4626    1.3690 O   0  0  0  0  0  0  0  0  0  0  0  0
   -1.0418   -0.4626   16.0850 O   0  0  0  0  0  0  0  0  0  0  0  0
   -1.0418   14.2534    1.3690 O   0  0  0  0  0  0  0  0  0  0  0  0
   -1.0418   14.2534   16.0850 O   0  0  0  0  0  0  0  0  0  0  0  0
   13.6742   -0.4626    1.3690 O   0  0  0  0  0  0  0  0  0  0  0  0
   13.6742   -0.4626   16.0850 O   0  0  0  0  0  0  0  0  0  0  0  0
   13.6742   14.2534    1.3690 O   0  0  0  0  0  0  0  0  0  0  0  0
   13.6742   14.2534   16.0850 O   0  0  0  0  0  0  0  0  0  0  0  0
   -2.5204   -0.6394   10.4217 O   0  0  0  0  0  0  0  0  0  0  0  0
   -2.5204   14.0766   10.4217 O   0  0  0  0  0  0  0  0  0  0  0  0
   12.1956   -0.6394   10.4217 O   0  0  0  0  0  0  0  0  0  0  0  0
   12.1956   14.0766   10.4217 O   0  0  0  0  0  0  0  0  0  0  0  0
   -0.8135   -2.0728   10.2935 O   0  0  0  0  0  0  0  0  0  0  0  0
   -0.8135   12.6432   10.2935 O   0  0  0  0  0  0  0  0  0  0  0  0
   13.9025   -2.0728   10.2935 O   0  0  0  0  0  0  0  0  0  0  0  0
   13.9025   12.6432   10.2935 O   0  0  0  0  0  0  0  0  0  0  0  0
  1353  1  0  0  0  0
  1354  1  0  0  0  0
  1360  1  0  0  0  0
  1365  1  0  0  0  0
  2353  1  0  0  0  0
  2356  1  0  0  0  0
  2358  1  0  0  0  0
  2364  1  0  0  0  0
  3353  1  0  0  0  0
  3357  1  0  0  0  0
  3361  1  0  0  0  0
  3362  1  0  0  0  0
  4353  1  0  0  0  0
  4355  1  0  0  0  0
  4359  1  0  0  0  0
  4363  1  0  0  0  0
  5366  1  0  0  0  0
  5374  1  0  0  0  0
  6367  1  0  0  0  0
  6375  1  0  0  0  0
  6442  1  0  0  0  0
  7368  1  0  0  0  0
  7376  1  0  0  0  0
  7414  1  0  0  0  0
  8369  1  0  0  0  0
  8377  1  0  0  0  0
  8415  1  0  0  0  0
  8443  1  0  0  0  0
  9370  1  0  0  0  0
  9378  1  0  0  0  0
 10371  1  0  0  0  0
 10379  1  0  0  0  0
 10444  1  0  0  0  0
 11372  1  0  0  0  0
 11380  1  0  0  0  0
 11416  1  0  0  0  0
 12373  1  0  0  0  0
 12381  1  0  0  0  0
 12417  1  0  0  0  0
 12445  1  0  0  0  0
 13366  1  0  0  0  0
 13398  1  0  0  0  0
 14367  1  0  0  0  0
 14399  1  0  0  0  0
 14438  1  0  0  0  0
 15368  1  0  0  0  0
 15400  1  0  0  0  0
 16369  1  0  0  0  0
 16401  1  0  0  0  0
 16439  1  0  0  0  0
 17370  1  0  0  0  0
 17390  1  0  0  0  0
 17402  1  0  0  0  0
 18371  1  0  0  0  0
 18391  1  0  0  0  0
 18403  1  0  0  0  0
 18440  1  0  0  0  0
 19372  1  0  0  0  0
 19392  1  0  0  0  0
 19404  1  0  0  0  0
 20373  1  0  0  0  0
 20393  1  0  0  0  0
 20405  1  0  0  0  0
 20441  1  0  0  0  0
 21366  1  0  0  0  0
 21422  1  0  0  0  0
 22367  1  0  0  0  0
 22423  1  0  0  0  0
 23368  1  0  0  0  0
 23418  1  0  0  0  0
 23424  1  0  0  0  0
 24369  1  0  0  0  0
 24419  1  0  0  0  0
 24425  1  0  0  0  0
 25370  1  0  0  0  0
 25394  1  0  0  0  0
 25426  1  0  0  0  0
 26371  1  0  0  0  0
 26395  1  0  0  0  0
 26427  1  0  0  0  0
 27372  1  0  0  0  0
 27396  1  0  0  0  0
 27420  1  0  0  0  0
 27428  1  0  0  0  0
 28373  1  0  0  0  0
 28397  1  0  0  0  0
 28421  1  0  0  0  0
 28429  1  0  0  0  0
 29366  1  0  0  0  0
 29382  1  0  0  0  0
 29406  1  0  0  0  0
 29430  1  0  0  0  0
 30367  1  0  0  0  0
 30383  1  0  0  0  0
 30407  1  0  0  0  0
 30431  1  0  0  0  0
 31368  1  0  0  0  0
 31384  1  0  0  0  0
 31408  1  0  0  0  0
 31432  1  0  0  0  0
 32369  1  0  0  0  0
 32385  1  0  0  0  0
 32409  1  0  0  0  0
 32433  1  0  0  0  0
 33370  1  0  0  0  0
 33386  1  0  0  0  0
 33410  1  0  0  0  0
 33434  1  0  0  0  0
 34371  1  0  0  0  0
 34387  1  0  0  0  0
 34411  1  0  0  0  0
 34435  1  0  0  0  0
 35372  1  0  0  0  0
 35388  1  0  0  0  0
 35412  1  0  0  0  0
 35436  1  0  0  0  0
 36373  1  0  0  0  0
 36389  1  0  0  0  0
 36413  1  0  0  0  0
 36437  1  0  0  0  0
 37136  1  0  0  0  0
 38137  1  0  0  0  0
 39138  1  0  0  0  0
 40139  1  0  0  0  0
 41142  1  0  0  0  0
 42143  1  0  0  0  0
 43147  1  0  0  0  0
 44148  1  0  0  0  0
 45149  1  0  0  0  0
 46150  1  0  0  0  0
 47153  1  0  0  0  0
 48154  1  0  0  0  0
 49158  1  0  0  0  0
 50159  1  0  0  0  0
 51160  1  0  0  0  0
 52161  1  0  0  0  0
 53164  1  0  0  0  0
 54165  1  0  0  0  0
 55169  1  0  0  0  0
 56170  1  0  0  0  0
 57171  1  0  0  0  0
 58172  1  0  0  0  0
 59175  1  0  0  0  0
 60176  1  0  0  0  0
 61180  1  0  0  0  0
 62181  1  0  0  0  0
 63182  1  0  0  0  0
 64183  1  0  0  0  0
 65186  1  0  0  0  0
 66187  1  0  0  0  0
 67191  1  0  0  0  0
 68192  1  0  0  0  0
 69193  1  0  0  0  0
 70194  1  0  0  0  0
 71197  1  0  0  0  0
 72198  1  0  0  0  0
 73211  1  0  0  0  0
 74212  1  0  0  0  0
 75213  1  0  0  0  0
 76214  1  0  0  0  0
 77215  1  0  0  0  0
 78216  1  0  0  0  0
 79217  1  0  0  0  0
 80218  1  0  0  0  0
 81223  1  0  0  0  0
 82224  1  0  0  0  0
 83225  1  0  0  0  0
 84226  1  0  0  0  0
 85237  1  0  0  0  0
 86238  1  0  0  0  0
 87241  1  0  0  0  0
 88242  1  0  0  0  0
 89247  1  0  0  0  0
 90248  1  0  0  0  0
 91249  1  0  0  0  0
 92250  1  0  0  0  0
 93265  1  0  0  0  0
 94266  1  0  0  0  0
 95267  1  0  0  0  0
 96268  1  0  0  0  0
 97273  1  0  0  0  0
 98274  1  0  0  0  0
 99275  1  0  0  0  0
100276  1  0  0  0  0
101285  1  0  0  0  0
102286  1  0  0  0  0
103287  1  0  0  0  0
104288  1  0  0  0  0
105289  1  0  0  0  0
106290  1  0  0  0  0
107291  1  0  0  0  0
108292  1  0  0  0  0
109297  1  0  0  0  0
110298  1  0  0  0  0
111299  1  0  0  0  0
112300  1  0  0  0  0
113314  1  0  0  0  0
114316  1  0  0  0  0
115318  1  0  0  0  0
116320  1  0  0  0  0
117325  1  0  0  0  0
118326  1  0  0  0  0
119327  1  0  0  0  0
120328  1  0  0  0  0
121337  1  0  0  0  0
122338  1  0  0  0  0
123339  1  0  0  0  0
124340  1  0  0  0  0
125341  1  0  0  0  0
126342  1  0  0  0  0
127343  1  0  0  0  0
128344  1  0  0  0  0
129349  1  0  0  0  0
130350  1  0  0  0  0
131351  1  0  0  0  0
132352  1  0  0  0  0
133135  1  0  0  0  0
133354  1  0  0  0  0
133355  1  0  0  0  0
134136  1  0  0  0  0
134153  1  0  0  0  0
135137  1  0  0  0  0
135154  1  0  0  0  0
136138  1  0  0  0  0
137139  1  0  0  0  0
138140  1  0  0  0  0
139141  1  0  0  0  0
140142  1  0  0  0  0
140151  1  0  0  0  0
141143  1  0  0  0  0
141152  1  0  0  0  0
142144  1  0  0  0  0
143145  1  0  0  0  0
144146  1  0  0  0  0
144147  1  0  0  0  0
145148  1  0  0  0  0
146356  1  0  0  0  0
146357  1  0  0  0  0
147149  1  0  0  0  0
148150  1  0  0  0  0
149151  1  0  0  0  0
150152  1  0  0  0  0
151153  1  0  0  0  0
152154  1  0  0  0  0
155157  1  0  0  0  0
155358  1  0  0  0  0
155359  1  0  0  0  0
156158  1  0  0  0  0
156175  1  0  0  0  0
157159  1  0  0  0  0
157176  1  0  0  0  0
158160  1  0  0  0  0
159161  1  0  0  0  0
160162  1  0  0  0  0
161163  1  0  0  0  0
162164  1  0  0  0  0
162173  1  0  0  0  0
163165  1  0  0  0  0
163174  1  0  0  0  0
164166  1  0  0  0  0
165167  1  0  0  0  0
166168  1  0  0  0  0
166169  1  0  0  0  0
167170  1  0  0  0  0
168360  1  0  0  0  0
168361  1  0  0  0  0
169171  1  0  0  0  0
170172  1  0  0  0  0
171173  1  0  0  0  0
172174  1  0  0  0  0
173175  1  0  0  0  0
174176  1  0  0  0  0
177179  1  0  0  0  0
177362  1  0  0  0  0
177363  1  0  0  0  0
178180  1  0  0  0  0
178197  1  0  0  0  0
179181  1  0  0  0  0
179198  1  0  0  0  0
180182  1  0  0  0  0
181183  1  0  0  0  0
182184  1  0  0  0  0
183185  1  0  0  0  0
184186  1  0  0  0  0
184195  1  0  0  0  0
185187  1  0  0  0  0
185196  1  0  0  0  0
186188  1  0  0  0  0
187189  1  0  0  0  0
188190  1  0  0  0  0
188191  1  0  0  0  0
189192  1  0  0  0  0
190364  1  0  0  0  0
190365  1  0  0  0  0
191193  1  0  0  0  0
192194  1  0  0  0  0
193195  1  0  0  0  0
194196  1  0  0  0  0
195197  1  0  0  0  0
196198  1  0  0  0  0
199207  1  0  0  0  0
199374  1  0  0  0  0
199382  1  0  0  0  0
200208  1  0  0  0  0
200375  1  0  0  0  0
200383  1  0  0  0  0
201209  1  0  0  0  0
201376  1  0  0  0  0
201384  1  0  0  0  0
202210  1  0  0  0  0
202377  1  0  0  0  0
202385  1  0  0  0  0
203378  1  0  0  0  0
203386  1  0  0  0  0
204379  1  0  0  0  0
204387  1  0  0  0  0
205380  1  0  0  0  0
205388  1  0  0  0  0
206381  1  0  0  0  0
206389  1  0  0  0  0
207211  1  0  0  0  0
207247  1  0  0  0  0
208212  1  0  0  0  0
208248  1  0  0  0  0
209213  1  0  0  0  0
209249  1  0  0  0  0
210214  1  0  0  0  0
210250  1  0  0  0  0
211215  1  0  0  0  0
212216  1  0  0  0  0
213217  1  0  0  0  0
214218  1  0  0  0  0
215219  1  0  0  0  0
216220  1  0  0  0  0
217221  1  0  0  0  0
218222  1  0  0  0  0
219223  1  0  0  0  0
219243  1  0  0  0  0
220224  1  0  0  0  0
220244  1  0  0  0  0
221225  1  0  0  0  0
221245  1  0  0  0  0
222226  1  0  0  0  0
222246  1  0  0  0  0
223227  1  0  0  0  0
224228  1  0  0  0  0
225229  1  0  0  0  0
226230  1  0  0  0  0
227231  1  0  0  0  0
227235  1  0  0  0  0
228232  1  0  0  0  0
228236  1  0  0  0  0
229233  1  0  0  0  0
229237  1  0  0  0  0
230234  1  0  0  0  0
230238  1  0  0  0  0
231390  1  0  0  0  0
231394  1  0  0  0  0
232391  1  0  0  0  0
232395  1  0  0  0  0
233392  1  0  0  0  0
233396  1  0  0  0  0
234393  1  0  0  0  0
234397  1  0  0  0  0
235239  1  0  0  0  0
236240  1  0  0  0  0
237241  1  0  0  0  0
238242  1  0  0  0  0
239243  1  0  0  0  0
240244  1  0  0  0  0
241245  1  0  0  0  0
242246  1  0  0  0  0
243247  1  0  0  0  0
244248  1  0  0  0  0
245249  1  0  0  0  0
246250  1  0  0  0  0
251259  1  0  0  0  0
251398  1  0  0  0  0
251406  1  0  0  0  0
252260  1  0  0  0  0
252399  1  0  0  0  0
252407  1  0  0  0  0
253400  1  0  0  0  0
253408  1  0  0  0  0
254401  1  0  0  0  0
254409  1  0  0  0  0
255261  1  0  0  0  0
255402  1  0  0  0  0
255410  1  0  0  0  0
256262  1  0  0  0  0
256403  1  0  0  0  0
256411  1  0  0  0  0
257404  1  0  0  0  0
257412  1  0  0  0  0
258405  1  0  0  0  0
258413  1  0  0  0  0
259263  1  0  0  0  0
259297  1  0  0  0  0
260264  1  0  0  0  0
260298  1  0  0  0  0
261265  1  0  0  0  0
261299  1  0  0  0  0
262266  1  0  0  0  0
262300  1  0  0  0  0
265267  1  0  0  0  0
266268  1  0  0  0  0
267271  1  0  0  0  0
268272  1  0  0  0  0
269273  1  0  0  0  0
269293  1  0  0  0  0
270274  1  0  0  0  0
270294  1  0  0  0  0
271275  1  0  0  0  0
271295  1  0  0  0  0
272276  1  0  0  0  0
272296  1  0  0  0  0
273277  1  0  0  0  0
274278  1  0  0  0  0
275279  1  0  0  0  0
276280  1  0  0  0  0
277281  1  0  0  0  0
277285  1  0  0  0  0
278282  1  0  0  0  0
278286  1  0  0  0  0
279283  1  0  0  0  0
279287  1  0  0  0  0
280284  1  0  0  0  0
280288  1  0  0  0  0
281414  1  0  0  0  0
281418  1  0  0  0  0
282415  1  0  0  0  0
282419  1  0  0  0  0
283416  1  0  0  0  0
283420  1  0  0  0  0
284417  1  0  0  0  0
284421  1  0  0  0  0
285289  1  0  0  0  0
286290  1  0  0  0  0
287291  1  0  0  0  0
288292  1  0  0  0  0
289293  1  0  0  0  0
290294  1  0  0  0  0
291295  1  0  0  0  0
292296  1  0  0  0  0
293297  1  0  0  0  0
294298  1  0  0  0  0
295299  1  0  0  0  0
296300  1  0  0  0  0
301309  1  0  0  0  0
301422  1  0  0  0  0
301430  1  0  0  0  0
302423  1  0  0  0  0
302431  1  0  0  0  0
303310  1  0  0  0  0
303424  1  0  0  0  0
303432  1  0  0  0  0
304425  1  0  0  0  0
304433  1  0  0  0  0
305311  1  0  0  0  0
305426  1  0  0  0  0
305434  1  0  0  0  0
306427  1  0  0  0  0
306435  1  0  0  0  0
307312  1  0  0  0  0
307428  1  0  0  0  0
307436  1  0  0  0  0
308429  1  0  0  0  0
308437  1  0  0  0  0
309313  1  0  0  0  0
309349  1  0  0  0  0
310314  1  0  0  0  0
310350  1  0  0  0  0
311315  1  0  0  0  0
311351  1  0  0  0  0
312316  1  0  0  0  0
312352  1  0  0  0  0
313317  1  0  0  0  0
314318  1  0  0  0  0
315319  1  0  0  0  0
316320  1  0  0  0  0
317321  1  0  0  0  0
318322  1  0  0  0  0
319323  1  0  0  0  0
320324  1  0  0  0  0
321325  1  0  0  0  0
321345  1  0  0  0  0
322326  1  0  0  0  0
322346  1  0  0  0  0
323327  1  0  0  0  0
323347  1  0  0  0  0
324328  1  0  0  0  0
324348  1  0  0  0  0
325329  1  0  0  0  0
326330  1  0  0  0  0
327331  1  0  0  0  0
328332  1  0  0  0  0
329333  1  0  0  0  0
329337  1  0  0  0  0
330334  1  0  0  0  0
330338  1  0  0  0  0
331335  1  0  0  0  0
331339  1  0  0  0  0
332336  1  0  0  0  0
332340  1  0  0  0  0
333438  1  0  0  0  0
333442  1  0  0  0  0
334439  1  0  0  0  0
334443  1  0  0  0  0
335440  1  0  0  0  0
335444  1  0  0  0  0
336441  1  0  0  0  0
336445  1  0  0  0  0
337341  1  0  0  0  0
338342  1  0  0  0  0
339343  1  0  0  0  0
340344  1  0  0  0  0
341345  1  0  0  0  0
342346  1  0  0  0  0
343347  1  0  0  0  0
344348  1  0  0  0  0
345349  1  0  0  0  0
346350  1  0  0  0  0
347351  1  0  0  0  0
348352  1  0  0  0  0
M  END
$$$$
