@<TRIPOS>MOLECULE
nh2_bpdc_cu2_paddlewheel_pillared_sql_bipy
188 204 0 0 0
SMALL
NO_CHARGES

@<TRIPOS>ATOM
     1 Cu1         0.069531    -0.010419     5.421846 Cu   1 RES 0.0000
     2 Cu2         0.069531    14.882551     5.421846 Cu   1 RES 0.0000
     3 Cu3        14.962500    -0.010419     5.421846 Cu   1 RES 0.0000
     4 Cu4        14.962500    14.882551     5.421846 Cu   1 RES 0.0000
     5 Cu5         0.027323    -0.000596     8.372130 Cu   1 RES 0.0000
     6 Cu6         0.027323    14.892373     8.372130 Cu   1 RES 0.0000
     7 Cu7        14.920292    -0.000596     8.372130 Cu   1 RES 0.0000
     8 Cu8        14.920292    14.892373     8.372130 Cu   1 RES 0.0000
     9 H9        10.595010     2.996663     7.473503 H    1 RES 0.0000
    10 H10       10.595010    17.889633     7.473503 H    1 RES 0.0000
    11 H11       -2.852145     2.110910     7.394443 H    1 RES 0.0000
    12 H12       -2.852145    17.003880     7.394443 H    1 RES 0.0000
    13 H13       12.040824     2.110910     7.394443 H    1 RES 0.0000
    14 H14       12.040824    17.003880     7.394443 H    1 RES 0.0000
    15 H15        6.654987     2.122691     6.876856 H    1 RES 0.0000
    16 H16        6.654987    17.015660     6.876856 H    1 RES 0.0000
    17 H17        4.236454     2.250821     6.891770 H    1 RES 0.0000
    18 H18        4.236454    17.143791     6.891770 H    1 RES 0.0000
    19 H19        8.500613     2.016262     7.120476 H    1 RES 0.0000
    20 H20        8.500613    16.909232     7.120476 H    1 RES 0.0000
    21 H21        3.991753    -2.005743     6.892445 H    1 RES 0.0000
    22 H22        3.991753    12.887226     6.892445 H    1 RES 0.0000
    23 H23        8.360645    -2.260356     6.743764 H    1 RES 0.0000
    24 H24        8.360645    12.632613     6.743764 H    1 RES 0.0000
    25 H25        6.429022    -2.163176     6.911609 H    1 RES 0.0000
    26 H26        6.429022    12.729794     6.911609 H    1 RES 0.0000
    27 H27       10.791070    -2.305743     6.658485 H    1 RES 0.0000
    28 H28       10.791070    12.587227     6.658485 H    1 RES 0.0000
    29 H29       -2.972586    10.541698     7.474382 H    1 RES 0.0000
    30 H30       11.920384    10.541698     7.474382 H    1 RES 0.0000
    31 H31       -2.095293    -2.902225     7.399821 H    1 RES 0.0000
    32 H32       -2.095293    11.990745     7.399821 H    1 RES 0.0000
    33 H33       12.797677    -2.902225     7.399821 H    1 RES 0.0000
    34 H34       12.797677    11.990745     7.399821 H    1 RES 0.0000
    35 H35       -2.088574     6.609071     6.834993 H    1 RES 0.0000
    36 H36       12.804396     6.609071     6.834993 H    1 RES 0.0000
    37 H37       -2.218096     4.195797     6.795170 H    1 RES 0.0000
    38 H38       12.674874     4.195797     6.795170 H    1 RES 0.0000
    39 H39       -1.988948     8.455689     7.102649 H    1 RES 0.0000
    40 H40       12.904022     8.455689     7.102649 H    1 RES 0.0000
    41 H41        2.037526     3.942458     6.900728 H    1 RES 0.0000
    42 H42       16.930496     3.942458     6.900728 H    1 RES 0.0000
    43 H43        2.294485     8.314585     6.787338 H    1 RES 0.0000
    44 H44       17.187454     8.314585     6.787338 H    1 RES 0.0000
    45 H45        2.194755     6.383884     6.935079 H    1 RES 0.0000
    46 H46       17.087725     6.383884     6.935079 H    1 RES 0.0000
    47 H47        2.341738    10.754398     6.762950 H    1 RES 0.0000
    48 H48       17.234708    10.754398     6.762950 H    1 RES 0.0000
    49 C49        6.760452    -0.032770     6.904655 C    1 RES 0.0000
    50 C50        6.760452    14.860200     6.904655 C    1 RES 0.0000
    51 C51        6.102700     1.199923     6.896532 C    1 RES 0.0000
    52 C52        6.102700    16.092893     6.896532 C    1 RES 0.0000
    53 C53        4.727731     1.288102     6.907715 C    1 RES 0.0000
    54 C54        4.727731    16.181072     6.907715 C    1 RES 0.0000
    55 C55        3.980808     0.126255     6.918636 C    1 RES 0.0000
    56 C56        3.980808    15.019225     6.918636 C    1 RES 0.0000
    57 C57        4.599076    -1.112523     6.908734 C    1 RES 0.0000
    58 C58        4.599076    13.780447     6.908734 C    1 RES 0.0000
    59 C59        5.975101    -1.186698     6.907959 C    1 RES 0.0000
    60 C60        5.975101    13.706271     6.907959 C    1 RES 0.0000
    61 C61       10.999023    -0.198148     6.852597 C    1 RES 0.0000
    62 C62       10.999023    14.694821     6.852597 C    1 RES 0.0000
    63 C63       10.363063     1.035138     7.004899 C    1 RES 0.0000
    64 C64       10.363063    15.928108     7.004899 C    1 RES 0.0000
    65 C65        8.976957     1.055975     7.011707 C    1 RES 0.0000
    66 C66        8.976957    15.948945     7.011707 C    1 RES 0.0000
    67 C67        8.224859    -0.108828     6.902780 C    1 RES 0.0000
    68 C68        8.224859    14.784141     6.902780 C    1 RES 0.0000
    69 C69        8.896421    -1.329314     6.800610 C    1 RES 0.0000
    70 C70        8.896421    13.563656     6.800610 C    1 RES 0.0000
    71 C71       10.273646    -1.367087     6.765531 C    1 RES 0.0000
    72 C72       10.273646    13.525883     6.765531 C    1 RES 0.0000
    73 C73       -2.402406    -0.205956     6.847294 C    1 RES 0.0000
    74 C74       -2.402406    14.687013     6.847294 C    1 RES 0.0000
    75 C75       12.490564    -0.205956     6.847294 C    1 RES 0.0000
    76 C76       12.490564    14.687013     6.847294 C    1 RES 0.0000
    77 C77        2.489372     0.169935     6.908159 C    1 RES 0.0000
    78 C78        2.489372    15.062905     6.908159 C    1 RES 0.0000
    79 C79       17.382341     0.169935     6.908159 C    1 RES 0.0000
    80 C80       17.382341    15.062905     6.908159 C    1 RES 0.0000
    81 C81        0.066129     6.714055     6.896647 C    1 RES 0.0000
    82 C82       14.959099     6.714055     6.896647 C    1 RES 0.0000
    83 C83       -1.165847     6.056369     6.860722 C    1 RES 0.0000
    84 C84       13.727123     6.056369     6.860722 C    1 RES 0.0000
    85 C85       -1.254888     4.681179     6.849410 C    1 RES 0.0000
    86 C86       13.638081     4.681179     6.849410 C    1 RES 0.0000
    87 C87       -0.093300     3.932577     6.874361 C    1 RES 0.0000
    88 C88       14.799669     3.932577     6.874361 C    1 RES 0.0000
    89 C89        1.145112     4.551497     6.900166 C    1 RES 0.0000
    90 C90       16.038081     4.551497     6.900166 C    1 RES 0.0000
    91 C91        1.219629     5.927714     6.911360 C    1 RES 0.0000
    92 C92       16.112599     5.927714     6.911360 C    1 RES 0.0000
    93 C93        0.231561    10.951335     6.905352 C    1 RES 0.0000
    94 C94       15.124531    10.951335     6.905352 C    1 RES 0.0000
    95 C95       -1.005118    10.315531     7.024854 C    1 RES 0.0000
    96 C96       13.887852    10.315531     7.024854 C    1 RES 0.0000
    97 C97       -1.025149     8.929334     7.014712 C    1 RES 0.0000
    98 C98       13.867821     8.929334     7.014712 C    1 RES 0.0000
    99 C99        0.141516     8.178835     6.912530 C    1 RES 0.0000
   100 C100      15.034486     8.178835     6.912530 C    1 RES 0.0000
   101 C101       1.363971     8.851295     6.838778 C    1 RES 0.0000
   102 C102      16.256940     8.851295     6.838778 C    1 RES 0.0000
   103 C103       1.402187    10.228851     6.829124 C    1 RES 0.0000
   104 C104      16.295156    10.228851     6.829124 C    1 RES 0.0000
   105 C105       0.246618    -2.450843     6.889736 C    1 RES 0.0000
   106 C106       0.246618    12.442127     6.889736 C    1 RES 0.0000
   107 C107      15.139588    -2.450843     6.889736 C    1 RES 0.0000
   108 C108      15.139588    12.442127     6.889736 C    1 RES 0.0000
   109 C109      -0.128144     2.440813     6.872162 C    1 RES 0.0000
   110 C110      -0.128144    17.333782     6.872162 C    1 RES 0.0000
   111 C111      14.764825     2.440813     6.872162 C    1 RES 0.0000
   112 C112      14.764825    17.333782     6.872162 C    1 RES 0.0000
   113 C113       0.000388    -0.002443    -1.985714 C    1 RES 0.0000
   114 C114       0.000388    -0.002443    11.814286 C    1 RES 0.0000
   115 C115       0.000388    14.890527    -1.985714 C    1 RES 0.0000
   116 C116       0.000388    14.890527    11.814286 C    1 RES 0.0000
   117 C117      14.893358    -0.002443    -1.985714 C    1 RES 0.0000
   118 C118      14.893358    -0.002443    11.814286 C    1 RES 0.0000
   119 C119      14.893358    14.890527    -1.985714 C    1 RES 0.0000
   120 C120      14.893358    14.890527    11.814286 C    1 RES 0.0000
   121 C121       0.010939    -0.004594    -0.624707 C    1 RES 0.0000
   122 C122       0.010939    -0.004594    13.175293 C    1 RES 0.0000
   123 C123       0.010939    14.888375    -0.624707 C    1 RES 0.0000
   124 C124       0.010939    14.888375    13.175293 C    1 RES 0.0000
   125 C125      14.903909    -0.004594    -0.624707 C    1 RES 0.0000
   126 C126      14.903909    -0.004594    13.175293 C    1 RES 0.0000
   127 C127      14.903909    14.888375    -0.624707 C    1 RES 0.0000
   128 C128      14.903909    14.888375    13.175293 C    1 RES 0.0000
   129 C129       0.011565    -0.004185     0.596049 C    1 RES 0.0000
   130 C130       0.011565    -0.004185    14.396049 C    1 RES 0.0000
   131 C131       0.011565    14.888785     0.596049 C    1 RES 0.0000
   132 C132       0.011565    14.888785    14.396049 C    1 RES 0.0000
   133 C133      14.904535    -0.004185     0.596049 C    1 RES 0.0000
   134 C134      14.904535    -0.004185    14.396049 C    1 RES 0.0000
   135 C135      14.904535    14.888785     0.596049 C    1 RES 0.0000
   136 C136      14.904535    14.888785    14.396049 C    1 RES 0.0000
   137 C137       0.013706     0.000197     1.957400 C    1 RES 0.0000
   138 C138       0.013706     0.000197    15.757400 C    1 RES 0.0000
   139 C139       0.013706    14.893167     1.957400 C    1 RES 0.0000
   140 C140       0.013706    14.893167    15.757400 C    1 RES 0.0000
   141 C141      14.906676     0.000197     1.957400 C    1 RES 0.0000
   142 C142      14.906676     0.000197    15.757400 C    1 RES 0.0000
   143 C143      14.906676    14.893167     1.957400 C    1 RES 0.0000
   144 C144      14.906676    14.893167    15.757400 C    1 RES 0.0000
   145 N145      11.085319     2.204991     7.085925 N    1 RES 0.0000
   146 N146      11.085319    17.097961     7.085925 N    1 RES 0.0000
   147 N147      -2.178324    11.033510     7.093965 N    1 RES 0.0000
   148 N148      12.714645    11.033510     7.093965 N    1 RES 0.0000
   149 N149      -0.016755     0.001625    10.663388 N    1 RES 0.0000
   150 N150      -0.016755    14.894594    10.663388 N    1 RES 0.0000
   151 N151      14.876214     0.001625    10.663388 N    1 RES 0.0000
   152 N152      14.876214    14.894594    10.663388 N    1 RES 0.0000
   153 N153       0.014426     0.006983     3.108314 N    1 RES 0.0000
   154 N154       0.014426    14.899952     3.108314 N    1 RES 0.0000
   155 N155      14.907395     0.006983     3.108314 N    1 RES 0.0000
   156 N156      14.907395    14.899952     3.108314 N    1 RES 0.0000
   157 O157      -1.897481    -0.238572     7.991656 O    1 RES 0.0000
   158 O158      -1.897481    14.654397     7.991656 O    1 RES 0.0000
   159 O159      12.995488    -0.238572     7.991656 O    1 RES 0.0000
   160 O160      12.995488    14.654397     7.991656 O    1 RES 0.0000
   161 O161      -1.866952    -0.140696     5.726478 O    1 RES 0.0000
   162 O162      -1.866952    14.752274     5.726478 O    1 RES 0.0000
   163 O163      13.026018    -0.140696     5.726478 O    1 RES 0.0000
   164 O164      13.026018    14.752274     5.726478 O    1 RES 0.0000
   165 O165       1.954052     0.245613     8.030243 O    1 RES 0.0000
   166 O166       1.954052    15.138583     8.030243 O    1 RES 0.0000
   167 O167      16.847022     0.245613     8.030243 O    1 RES 0.0000
   168 O168      16.847022    15.138583     8.030243 O    1 RES 0.0000
   169 O169       1.994992     0.099064     5.765147 O    1 RES 0.0000
   170 O170       1.994992    14.992033     5.765147 O    1 RES 0.0000
   171 O171      16.887962     0.099064     5.765147 O    1 RES 0.0000
   172 O172      16.887962    14.992033     5.765147 O    1 RES 0.0000
   173 O173       0.249327    -1.925087     8.022198 O    1 RES 0.0000
   174 O174       0.249327    12.967882     8.022198 O    1 RES 0.0000
   175 O175      15.142297    -1.925087     8.022198 O    1 RES 0.0000
   176 O176      15.142297    12.967882     8.022198 O    1 RES 0.0000
   177 O177       0.205353    -1.940137     5.754709 O    1 RES 0.0000
   178 O178       0.205353    12.952832     5.754709 O    1 RES 0.0000
   179 O179      15.098323    -1.940137     5.754709 O    1 RES 0.0000
   180 O180      15.098323    12.952832     5.754709 O    1 RES 0.0000
   181 O181      -0.238875     1.924705     8.003286 O    1 RES 0.0000
   182 O182      -0.238875    16.817674     8.003286 O    1 RES 0.0000
   183 O183      14.654095     1.924705     8.003286 O    1 RES 0.0000
   184 O184      14.654095    16.817674     8.003286 O    1 RES 0.0000
   185 O185      -0.027126     1.923216     5.743503 O    1 RES 0.0000
   186 O186      -0.027126    16.816186     5.743503 O    1 RES 0.0000
   187 O187      14.865844     1.923216     5.743503 O    1 RES 0.0000
   188 O188      14.865844    16.816186     5.743503 O    1 RES 0.0000
@<TRIPOS>BOND
     1      1    153 1
     2      1    161 1
     3      1    169 1
     4      1    177 1
     5      1    185 1
     6      2    154 1
     7      2    162 1
     8      2    170 1
     9      2    178 1
    10      2    186 1
    11      3    155 1
    12      3    163 1
    13      3    171 1
    14      3    179 1
    15      3    187 1
    16      4    156 1
    17      4    164 1
    18      4    172 1
    19      4    180 1
    20      4    188 1
    21      5    149 1
    22      5    157 1
    23      5    165 1
    24      5    173 1
    25      5    181 1
    26      6    150 1
    27      6    158 1
    28      6    166 1
    29      6    174 1
    30      6    182 1
    31      7    151 1
    32      7    159 1
    33      7    167 1
    34      7    175 1
    35      7    183 1
    36      8    152 1
    37      8    160 1
    38      8    168 1
    39      8    176 1
    40      8    184 1
    41      9    145 1
    42     10    146 1
    43     13    145 1
    44     14    146 1
    45     15     51 1
    46     16     52 1
    47     17     53 1
    48     18     54 1
    49     19     65 1
    50     20     66 1
    51     21     57 1
    52     22     58 1
    53     23     69 1
    54     24     70 1
    55     25     59 1
    56     26     60 1
    57     27     71 1
    58     28     72 1
    59     29    147 1
    60     30    148 1
    61     32    147 1
    62     34    148 1
    63     35     83 1
    64     36     84 1
    65     37     85 1
    66     38     86 1
    67     39     97 1
    68     40     98 1
    69     41     89 1
    70     42     90 1
    71     43    101 1
    72     44    102 1
    73     45     91 1
    74     46     92 1
    75     47    103 1
    76     48    104 1
    77     49     51 1
    78     49     59 1
    79     49     67 1
    80     50     52 1
    81     50     60 1
    82     50     68 1
    83     51     53 1
    84     52     54 1
    85     53     55 1
    86     54     56 1
    87     55     57 1
    88     55     77 1
    89     56     58 1
    90     56     78 1
    91     57     59 1
    92     58     60 1
    93     61     63 1
    94     61     71 1
    95     61     75 1
    96     62     64 1
    97     62     72 1
    98     62     76 1
    99     63     65 1
   100     63    145 1
   101     64     66 1
   102     64    146 1
   103     65     67 1
   104     66     68 1
   105     67     69 1
   106     68     70 1
   107     69     71 1
   108     70     72 1
   109     73    157 1
   110     73    161 1
   111     74    158 1
   112     74    162 1
   113     75    159 1
   114     75    163 1
   115     76    160 1
   116     76    164 1
   117     77    165 1
   118     77    169 1
   119     78    166 1
   120     78    170 1
   121     79    167 1
   122     79    171 1
   123     80    168 1
   124     80    172 1
   125     81     83 1
   126     81     91 1
   127     81     99 1
   128     82     84 1
   129     82     92 1
   130     82    100 1
   131     83     85 1
   132     84     86 1
   133     85     87 1
   134     86     88 1
   135     87     89 1
   136     87    109 1
   137     88     90 1
   138     88    111 1
   139     89     91 1
   140     90     92 1
   141     93     95 1
   142     93    103 1
   143     93    106 1
   144     94     96 1
   145     94    104 1
   146     94    108 1
   147     95     97 1
   148     95    147 1
   149     96     98 1
   150     96    148 1
   151     97     99 1
   152     98    100 1
   153     99    101 1
   154    100    102 1
   155    101    103 1
   156    102    104 1
   157    105    173 1
   158    105    177 1
   159    106    174 1
   160    106    178 1
   161    107    175 1
   162    107    179 1
   163    108    176 1
   164    108    180 1
   165    109    181 1
   166    109    185 1
   167    110    182 1
   168    110    186 1
   169    111    183 1
   170    111    187 1
   171    112    184 1
   172    112    188 1
   173    113    121 1
   174    114    122 1
   175    114    149 1
   176    115    123 1
   177    116    124 1
   178    116    150 1
   179    117    125 1
   180    118    126 1
   181    118    151 1
   182    119    127 1
   183    120    128 1
   184    120    152 1
   185    121    129 1
   186    122    130 1
   187    123    131 1
   188    124    132 1
   189    125    133 1
   190    126    134 1
   191    127    135 1
   192    128    136 1
   193    129    137 1
   194    130    138 1
   195    131    139 1
   196    132    140 1
   197    133    141 1
   198    134    142 1
   199    135    143 1
   200    136    144 1
   201    137    153 1
   202    139    154 1
   203    141    155 1
   204    143    156 1
