nh2_bpdc_zn4o_pcu_ip2_off400
AtomForge visual export

555636  0  0  0  0            999 V2000
    9.4274    7.3762    7.4140 Zn  0  0  0  0  0  0  0  0  0  0  0  0
    7.3892    9.4484    7.4311 Zn  0  0  0  0  0  0  0  0  0  0  0  0
    7.3728    7.3748    9.5055 Zn  0  0  0  0  0  0  0  0  0  0  0  0
    9.4545    9.4255    9.4680 Zn  0  0  0  0  0  0  0  0  0  0  0  0
   -0.6818   -2.7224   -2.6904 Zn  0  0  0  0  0  0  0  0  0  0  0  0
   -0.6818   -2.7224   14.1256 Zn  0  0  0  0  0  0  0  0  0  0  0  0
   -0.6818   14.0936   -2.6904 Zn  0  0  0  0  0  0  0  0  0  0  0  0
   -0.6818   14.0936   14.1256 Zn  0  0  0  0  0  0  0  0  0  0  0  0
   16.1342   -2.7224   -2.6904 Zn  0  0  0  0  0  0  0  0  0  0  0  0
   16.1342   -2.7224   14.1256 Zn  0  0  0  0  0  0  0  0  0  0  0  0
   16.1342   14.0936   -2.6904 Zn  0  0  0  0  0  0  0  0  0  0  0  0
   16.1342   14.0936   14.1256 Zn  0  0  0  0  0  0  0  0  0  0  0  0
   -2.7246   -0.6622   -2.6659 Zn  0  0  0  0  0  0  0  0  0  0  0  0
   -2.7246   -0.6622   14.1501 Zn  0  0  0  0  0  0  0  0  0  0  0  0
   -2.7246   16.1538   -2.6659 Zn  0  0  0  0  0  0  0  0  0  0  0  0
   -2.7246   16.1538   14.1501 Zn  0  0  0  0  0  0  0  0  0  0  0  0
   14.0914   -0.6622   -2.6659 Zn  0  0  0  0  0  0  0  0  0  0  0  0
   14.0914   -0.6622   14.1501 Zn  0  0  0  0  0  0  0  0  0  0  0  0
   14.0914   16.1538   -2.6659 Zn  0  0  0  0  0  0  0  0  0  0  0  0
   14.0914   16.1538   14.1501 Zn  0  0  0  0  0  0  0  0  0  0  0  0
   -2.7295   -2.7356   -0.6001 Zn  0  0  0  0  0  0  0  0  0  0  0  0
   -2.7295   -2.7356   16.2159 Zn  0  0  0  0  0  0  0  0  0  0  0  0
   -2.7295   14.0804   -0.6001 Zn  0  0  0  0  0  0  0  0  0  0  0  0
   -2.7295   14.0804   16.2159 Zn  0  0  0  0  0  0  0  0  0  0  0  0
   14.0865   -2.7356   -0.6001 Zn  0  0  0  0  0  0  0  0  0  0  0  0
   14.0865   -2.7356   16.2159 Zn  0  0  0  0  0  0  0  0  0  0  0  0
   14.0865   14.0804   -0.6001 Zn  0  0  0  0  0  0  0  0  0  0  0  0
   14.0865   14.0804   16.2159 Zn  0  0  0  0  0  0  0  0  0  0  0  0
   -0.6486   -0.6712   -0.6332 Zn  0  0  0  0  0  0  0  0  0  0  0  0
   -0.6486   -0.6712   16.1828 Zn  0  0  0  0  0  0  0  0  0  0  0  0
   -0.6486   16.1448   -0.6332 Zn  0  0  0  0  0  0  0  0  0  0  0  0
   -0.6486   16.1448   16.1828 Zn  0  0  0  0  0  0  0  0  0  0  0  0
   16.1674   -0.6712   -0.6332 Zn  0  0  0  0  0  0  0  0  0  0  0  0
   16.1674   -0.6712   16.1828 Zn  0  0  0  0  0  0  0  0  0  0  0  0
   16.1674   16.1448   -0.6332 Zn  0  0  0  0  0  0  0  0  0  0  0  0
   16.1674   16.1448   16.1828 Zn  0  0  0  0  0  0  0  0  0  0  0  0
   -3.3044    8.6051   10.5259 H   0  0  0  0  0  0  0  0  0  0  0  0
   13.5116    8.6051   10.5259 H   0  0  0  0  0  0  0  0  0  0  0  0
   -0.9043    8.6560   10.4197 H   0  0  0  0  0  0  0  0  0  0  0  0
   15.9117    8.6560   10.4197 H   0  0  0  0  0  0  0  0  0  0  0  0
    0.8811    8.2819   10.4537 H   0  0  0  0  0  0  0  0  0  0  0  0
   17.6971    8.2819   10.4537 H   0  0  0  0  0  0  0  0  0  0  0  0
    3.2957    8.2769   10.5582 H   0  0  0  0  0  0  0  0  0  0  0  0
   20.1117    8.2769   10.5582 H   0  0  0  0  0  0  0  0  0  0  0  0
    3.5132    8.5174    6.3198 H   0  0  0  0  0  0  0  0  0  0  0  0
   20.3292    8.5174    6.3198 H   0  0  0  0  0  0  0  0  0  0  0  0
    1.1051    8.5089    6.1712 H   0  0  0  0  0  0  0  0  0  0  0  0
   17.9211    8.5089    6.1712 H   0  0  0  0  0  0  0  0  0  0  0  0
   -0.4587    9.1992    5.5422 H   0  0  0  0  0  0  0  0  0  0  0  0
   16.3573    9.1992    5.5422 H   0  0  0  0  0  0  0  0  0  0  0  0
   -0.7297    7.5577    5.4017 H   0  0  0  0  0  0  0  0  0  0  0  0
   16.0863    7.5577    5.4017 H   0  0  0  0  0  0  0  0  0  0  0  0
   -3.4720    8.2374    6.2832 H   0  0  0  0  0  0  0  0  0  0  0  0
   13.3440    8.2374    6.2832 H   0  0  0  0  0  0  0  0  0  0  0  0
    6.3208   -3.3132    8.3166 H   0  0  0  0  0  0  0  0  0  0  0  0
    6.3208   13.5028    8.3166 H   0  0  0  0  0  0  0  0  0  0  0  0
    6.4243   -0.9140    8.3027 H   0  0  0  0  0  0  0  0  0  0  0  0
    6.4243   15.9020    8.3027 H   0  0  0  0  0  0  0  0  0  0  0  0
    6.3851    0.8769    8.5856 H   0  0  0  0  0  0  0  0  0  0  0  0
    6.3851   17.6929    8.5856 H   0  0  0  0  0  0  0  0  0  0  0  0
    6.2805    3.2874    8.5726 H   0  0  0  0  0  0  0  0  0  0  0  0
    6.2805   20.1034    8.5726 H   0  0  0  0  0  0  0  0  0  0  0  0
   10.5186    3.5067    8.3356 H   0  0  0  0  0  0  0  0  0  0  0  0
   10.5186   20.3227    8.3356 H   0  0  0  0  0  0  0  0  0  0  0  0
   10.6697    1.0989    8.3986 H   0  0  0  0  0  0  0  0  0  0  0  0
   10.6697   17.9149    8.3986 H   0  0  0  0  0  0  0  0  0  0  0  0
   11.2696   -0.4174    7.6580 H   0  0  0  0  0  0  0  0  0  0  0  0
   11.2696   16.3986    7.6580 H   0  0  0  0  0  0  0  0  0  0  0  0
   11.5143   -0.8207    9.2660 H   0  0  0  0  0  0  0  0  0  0  0  0
   11.5143   15.9953    9.2660 H   0  0  0  0  0  0  0  0  0  0  0  0
   10.5698   -3.4810    8.6030 H   0  0  0  0  0  0  0  0  0  0  0  0
   10.5698   13.3350    8.6030 H   0  0  0  0  0  0  0  0  0  0  0  0
    8.2619    6.3112   -3.2534 H   0  0  0  0  0  0  0  0  0  0  0  0
    8.2619    6.3112   13.5626 H   0  0  0  0  0  0  0  0  0  0  0  0
    8.2335    6.4353   -0.8550 H   0  0  0  0  0  0  0  0  0  0  0  0
    8.2335    6.4353   15.9610 H   0  0  0  0  0  0  0  0  0  0  0  0
    8.5743    6.4067    0.9285 H   0  0  0  0  0  0  0  0  0  0  0  0
    8.5743    6.4067   17.7445 H   0  0  0  0  0  0  0  0  0  0  0  0
    8.5507    6.3122    3.3391 H   0  0  0  0  0  0  0  0  0  0  0  0
    8.5507    6.3122   20.1551 H   0  0  0  0  0  0  0  0  0  0  0  0
    8.3094   10.5516    3.5391 H   0  0  0  0  0  0  0  0  0  0  0  0
    8.3094   10.5516   20.3551 H   0  0  0  0  0  0  0  0  0  0  0  0
    8.3875   10.6924    1.1336 H   0  0  0  0  0  0  0  0  0  0  0  0
    8.3875   10.6924   17.9496 H   0  0  0  0  0  0  0  0  0  0  0  0
    7.6787   11.2770   -0.3770 H   0  0  0  0  0  0  0  0  0  0  0  0
    7.6787   11.2770   16.4390 H   0  0  0  0  0  0  0  0  0  0  0  0
    9.2782   11.5159   -0.8141 H   0  0  0  0  0  0  0  0  0  0  0  0
    9.2782   11.5159   16.0019 H   0  0  0  0  0  0  0  0  0  0  0  0
    8.6212   10.5529   -3.4546 H   0  0  0  0  0  0  0  0  0  0  0  0
    8.6212   10.5529   13.3614 H   0  0  0  0  0  0  0  0  0  0  0  0
    3.4055   -1.5092    0.4034 H   0  0  0  0  0  0  0  0  0  0  0  0
    3.4055   -1.5092   17.2194 H   0  0  0  0  0  0  0  0  0  0  0  0
    3.4055   15.3068    0.4034 H   0  0  0  0  0  0  0  0  0  0  0  0
    3.4055   15.3068   17.2194 H   0  0  0  0  0  0  0  0  0  0  0  0
    5.8081   -1.4869    0.2981 H   0  0  0  0  0  0  0  0  0  0  0  0
    5.8081   -1.4869   17.1141 H   0  0  0  0  0  0  0  0  0  0  0  0
    5.8081   15.3291    0.2981 H   0  0  0  0  0  0  0  0  0  0  0  0
    5.8081   15.3291   17.1141 H   0  0  0  0  0  0  0  0  0  0  0  0
    7.5861   -1.8889    0.3368 H   0  0  0  0  0  0  0  0  0  0  0  0
    7.5861   -1.8889   17.1528 H   0  0  0  0  0  0  0  0  0  0  0  0
    7.5861   14.9271    0.3368 H   0  0  0  0  0  0  0  0  0  0  0  0
    7.5861   14.9271   17.1528 H   0  0  0  0  0  0  0  0  0  0  0  0
    9.9984   -1.8751    0.4511 H   0  0  0  0  0  0  0  0  0  0  0  0
    9.9984   -1.8751   17.2671 H   0  0  0  0  0  0  0  0  0  0  0  0
    9.9984   14.9409    0.4511 H   0  0  0  0  0  0  0  0  0  0  0  0
    9.9984   14.9409   17.2671 H   0  0  0  0  0  0  0  0  0  0  0  0
   10.2279   -1.6350   13.0277 H   0  0  0  0  0  0  0  0  0  0  0  0
   10.2279   15.1810   13.0277 H   0  0  0  0  0  0  0  0  0  0  0  0
    7.8232   -1.6376   12.8698 H   0  0  0  0  0  0  0  0  0  0  0  0
    7.8232   15.1784   12.8698 H   0  0  0  0  0  0  0  0  0  0  0  0
    6.2338   -0.9144   12.2405 H   0  0  0  0  0  0  0  0  0  0  0  0
    6.2338   15.9016   12.2405 H   0  0  0  0  0  0  0  0  0  0  0  0
    6.0326   -2.5636   12.1124 H   0  0  0  0  0  0  0  0  0  0  0  0
    6.0326   14.2524   12.1124 H   0  0  0  0  0  0  0  0  0  0  0  0
    3.2390   -1.8693   12.9781 H   0  0  0  0  0  0  0  0  0  0  0  0
    3.2390   14.9467   12.9781 H   0  0  0  0  0  0  0  0  0  0  0  0
   13.0293    3.3935   -1.8523 H   0  0  0  0  0  0  0  0  0  0  0  0
   13.0293    3.3935   14.9637 H   0  0  0  0  0  0  0  0  0  0  0  0
   -3.6909    5.7978   -1.8940 H   0  0  0  0  0  0  0  0  0  0  0  0
   -3.6909    5.7978   14.9220 H   0  0  0  0  0  0  0  0  0  0  0  0
   13.1251    5.7978   -1.8940 H   0  0  0  0  0  0  0  0  0  0  0  0
   13.1251    5.7978   14.9220 H   0  0  0  0  0  0  0  0  0  0  0  0
   13.0840    7.5944   -1.5440 H   0  0  0  0  0  0  0  0  0  0  0  0
   13.0840    7.5944   15.2720 H   0  0  0  0  0  0  0  0  0  0  0  0
   12.9838   10.0047   -1.5577 H   0  0  0  0  0  0  0  0  0  0  0  0
   12.9838   10.0047   15.2583 H   0  0  0  0  0  0  0  0  0  0  0  0
    0.4062   10.2165   -1.8377 H   0  0  0  0  0  0  0  0  0  0  0  0
    0.4062   10.2165   14.9783 H   0  0  0  0  0  0  0  0  0  0  0  0
   17.2222   10.2165   -1.8377 H   0  0  0  0  0  0  0  0  0  0  0  0
   17.2222   10.2165   14.9783 H   0  0  0  0  0  0  0  0  0  0  0  0
    0.5492    7.8058   -1.8536 H   0  0  0  0  0  0  0  0  0  0  0  0
    0.5492    7.8058   14.9624 H   0  0  0  0  0  0  0  0  0  0  0  0
   17.3652    7.8058   -1.8536 H   0  0  0  0  0  0  0  0  0  0  0  0
   17.3652    7.8058   14.9624 H   0  0  0  0  0  0  0  0  0  0  0  0
    1.2414    6.1428   -2.4774 H   0  0  0  0  0  0  0  0  0  0  0  0
    1.2414    6.1428   14.3386 H   0  0  0  0  0  0  0  0  0  0  0  0
   18.0574    6.1428   -2.4774 H   0  0  0  0  0  0  0  0  0  0  0  0
   18.0574    6.1428   14.3386 H   0  0  0  0  0  0  0  0  0  0  0  0
    1.2477    6.1426   -0.8111 H   0  0  0  0  0  0  0  0  0  0  0  0
    1.2477    6.1426   16.0049 H   0  0  0  0  0  0  0  0  0  0  0  0
   18.0637    6.1426   -0.8111 H   0  0  0  0  0  0  0  0  0  0  0  0
   18.0637    6.1426   16.0049 H   0  0  0  0  0  0  0  0  0  0  0  0
    0.4597    3.2436   -1.5251 H   0  0  0  0  0  0  0  0  0  0  0  0
    0.4597    3.2436   15.2909 H   0  0  0  0  0  0  0  0  0  0  0  0
   17.2757    3.2436   -1.5251 H   0  0  0  0  0  0  0  0  0  0  0  0
   17.2757    3.2436   15.2909 H   0  0  0  0  0  0  0  0  0  0  0  0
   -1.8740   13.0173    3.4560 H   0  0  0  0  0  0  0  0  0  0  0  0
   14.9420   13.0173    3.4560 H   0  0  0  0  0  0  0  0  0  0  0  0
   -1.9354   -3.6812    5.8571 H   0  0  0  0  0  0  0  0  0  0  0  0
   -1.9354   13.1348    5.8571 H   0  0  0  0  0  0  0  0  0  0  0  0
   14.8806   -3.6812    5.8571 H   0  0  0  0  0  0  0  0  0  0  0  0
   14.8806   13.1348    5.8571 H   0  0  0  0  0  0  0  0  0  0  0  0
   -1.5703   13.1035    7.6471 H   0  0  0  0  0  0  0  0  0  0  0  0
   15.2457   13.1035    7.6471 H   0  0  0  0  0  0  0  0  0  0  0  0
   -1.5978   13.0131   10.0573 H   0  0  0  0  0  0  0  0  0  0  0  0
   15.2182   13.0131   10.0573 H   0  0  0  0  0  0  0  0  0  0  0  0
   -1.8754    0.4364   10.2500 H   0  0  0  0  0  0  0  0  0  0  0  0
   -1.8754   17.2524   10.2500 H   0  0  0  0  0  0  0  0  0  0  0  0
   14.9406    0.4364   10.2500 H   0  0  0  0  0  0  0  0  0  0  0  0
   14.9406   17.2524   10.2500 H   0  0  0  0  0  0  0  0  0  0  0  0
   -1.8593    0.5700    7.8402 H   0  0  0  0  0  0  0  0  0  0  0  0
   -1.8593   17.3860    7.8402 H   0  0  0  0  0  0  0  0  0  0  0  0
   14.9567    0.5700    7.8402 H   0  0  0  0  0  0  0  0  0  0  0  0
   14.9567   17.3860    7.8402 H   0  0  0  0  0  0  0  0  0  0  0  0
   -2.4662    1.2366    6.1969 H   0  0  0  0  0  0  0  0  0  0  0  0
   -2.4662   18.0526    6.1969 H   0  0  0  0  0  0  0  0  0  0  0  0
   14.3498    1.2366    6.1969 H   0  0  0  0  0  0  0  0  0  0  0  0
   14.3498   18.0526    6.1969 H   0  0  0  0  0  0  0  0  0  0  0  0
   -0.8010    1.2584    6.1424 H   0  0  0  0  0  0  0  0  0  0  0  0
   -0.8010   18.0744    6.1424 H   0  0  0  0  0  0  0  0  0  0  0  0
   16.0150    1.2584    6.1424 H   0  0  0  0  0  0  0  0  0  0  0  0
   16.0150   18.0744    6.1424 H   0  0  0  0  0  0  0  0  0  0  0  0
   -1.5057    0.4429    3.2707 H   0  0  0  0  0  0  0  0  0  0  0  0
   -1.5057   17.2589    3.2707 H   0  0  0  0  0  0  0  0  0  0  0  0
   15.3103    0.4429    3.2707 H   0  0  0  0  0  0  0  0  0  0  0  0
   15.3103   17.2589    3.2707 H   0  0  0  0  0  0  0  0  0  0  0  0
   11.7809    8.3762    8.4462 C   0  0  0  0  0  0  0  0  0  0  0  0
   -3.5576    8.3792    8.4125 C   0  0  0  0  0  0  0  0  0  0  0  0
   13.2584    8.3792    8.4125 C   0  0  0  0  0  0  0  0  0  0  0  0
   -2.8073    8.5187    9.5731 C   0  0  0  0  0  0  0  0  0  0  0  0
   14.0087    8.5187    9.5731 C   0  0  0  0  0  0  0  0  0  0  0  0
   -1.4356    8.5428    9.4889 C   0  0  0  0  0  0  0  0  0  0  0  0
   15.3804    8.5428    9.4889 C   0  0  0  0  0  0  0  0  0  0  0  0
   -0.7352    8.4651    8.2708 C   0  0  0  0  0  0  0  0  0  0  0  0
   16.0808    8.4651    8.2708 C   0  0  0  0  0  0  0  0  0  0  0  0
    0.7414    8.4451    8.3037 C   0  0  0  0  0  0  0  0  0  0  0  0
   17.5574    8.4451    8.3037 C   0  0  0  0  0  0  0  0  0  0  0  0
    1.4237    8.3535    9.5275 C   0  0  0  0  0  0  0  0  0  0  0  0
   18.2397    8.3535    9.5275 C   0  0  0  0  0  0  0  0  0  0  0  0
    2.7980    8.3337    9.6030 C   0  0  0  0  0  0  0  0  0  0  0  0
   19.6140    8.3337    9.6030 C   0  0  0  0  0  0  0  0  0  0  0  0
    3.5611    8.4064    8.4440 C   0  0  0  0  0  0  0  0  0  0  0  0
   20.3771    8.4064    8.4440 C   0  0  0  0  0  0  0  0  0  0  0  0
    5.0388    8.4102    8.4894 C   0  0  0  0  0  0  0  0  0  0  0  0
    2.9155    8.4742    7.2170 C   0  0  0  0  0  0  0  0  0  0  0  0
   19.7315    8.4742    7.2170 C   0  0  0  0  0  0  0  0  0  0  0  0
    1.5387    8.4820    7.1527 C   0  0  0  0  0  0  0  0  0  0  0  0
   18.3547    8.4820    7.1527 C   0  0  0  0  0  0  0  0  0  0  0  0
   -1.5206    8.3946    7.0933 C   0  0  0  0  0  0  0  0  0  0  0  0
   15.2954    8.3946    7.0933 C   0  0  0  0  0  0  0  0  0  0  0  0
   -2.9031    8.3135    7.1960 C   0  0  0  0  0  0  0  0  0  0  0  0
   13.9129    8.3135    7.1960 C   0  0  0  0  0  0  0  0  0  0  0  0
    8.4109   11.7739    8.4539 C   0  0  0  0  0  0  0  0  0  0  0  0
    8.4395   -3.5658    8.4938 C   0  0  0  0  0  0  0  0  0  0  0  0
    8.4395   13.2502    8.4938 C   0  0  0  0  0  0  0  0  0  0  0  0
    7.2749   -2.8161    8.3848 C   0  0  0  0  0  0  0  0  0  0  0  0
    7.2749   13.9999    8.3848 C   0  0  0  0  0  0  0  0  0  0  0  0
    7.3587   -1.4446    8.3759 C   0  0  0  0  0  0  0  0  0  0  0  0
    7.3587   15.3714    8.3759 C   0  0  0  0  0  0  0  0  0  0  0  0
    8.5777   -0.7431    8.4237 C   0  0  0  0  0  0  0  0  0  0  0  0
    8.5777   16.0729    8.4237 C   0  0  0  0  0  0  0  0  0  0  0  0
    8.5392    0.7336    8.4350 C   0  0  0  0  0  0  0  0  0  0  0  0
    8.5392   17.5496    8.4350 C   0  0  0  0  0  0  0  0  0  0  0  0
    7.3138    1.4156    8.5143 C   0  0  0  0  0  0  0  0  0  0  0  0
    7.3138   18.2316    8.5143 C   0  0  0  0  0  0  0  0  0  0  0  0
    7.2363    2.7905    8.5190 C   0  0  0  0  0  0  0  0  0  0  0  0
    7.2363   19.6065    8.5190 C   0  0  0  0  0  0  0  0  0  0  0  0
    8.3935    3.5549    8.4344 C   0  0  0  0  0  0  0  0  0  0  0  0
    8.3935   20.3709    8.4344 C   0  0  0  0  0  0  0  0  0  0  0  0
    8.3578    5.0332    8.4366 C   0  0  0  0  0  0  0  0  0  0  0  0
    9.6215    2.9093    8.3839 C   0  0  0  0  0  0  0  0  0  0  0  0
    9.6215   19.7253    8.3839 C   0  0  0  0  0  0  0  0  0  0  0  0
    9.6885    1.5333    8.4008 C   0  0  0  0  0  0  0  0  0  0  0  0
    9.6885   18.3493    8.4008 C   0  0  0  0  0  0  0  0  0  0  0  0
    9.7575   -1.5274    8.4726 C   0  0  0  0  0  0  0  0  0  0  0  0
    9.7575   15.2886    8.4726 C   0  0  0  0  0  0  0  0  0  0  0  0
    9.6557   -2.9112    8.5519 C   0  0  0  0  0  0  0  0  0  0  0  0
    9.6557   13.9048    8.5519 C   0  0  0  0  0  0  0  0  0  0  0  0
    8.4574    8.3824   11.8148 C   0  0  0  0  0  0  0  0  0  0  0  0
    8.4838    8.4238   -3.5240 C   0  0  0  0  0  0  0  0  0  0  0  0
    8.4838    8.4238   13.2920 C   0  0  0  0  0  0  0  0  0  0  0  0
    8.3474    7.2682   -2.7641 C   0  0  0  0  0  0  0  0  0  0  0  0
    8.3474    7.2682   14.0519 C   0  0  0  0  0  0  0  0  0  0  0  0
    8.3315    7.3632   -1.3936 C   0  0  0  0  0  0  0  0  0  0  0  0
    8.3315    7.3632   15.4224 C   0  0  0  0  0  0  0  0  0  0  0  0
    8.3996    8.5866   -0.7012 C   0  0  0  0  0  0  0  0  0  0  0  0
    8.3996    8.5866   16.1148 C   0  0  0  0  0  0  0  0  0  0  0  0
    8.4127    8.5591    0.7754 C   0  0  0  0  0  0  0  0  0  0  0  0
    8.4127    8.5591   17.5914 C   0  0  0  0  0  0  0  0  0  0  0  0
    8.4954    7.3371    1.4627 C   0  0  0  0  0  0  0  0  0  0  0  0
    8.4954    7.3371   18.2787 C   0  0  0  0  0  0  0  0  0  0  0  0
    8.4984    7.2655    2.8374 C   0  0  0  0  0  0  0  0  0  0  0  0
    8.4984    7.2655   19.6534 C   0  0  0  0  0  0  0  0  0  0  0  0
    8.4081    8.4264    3.5952 C   0  0  0  0  0  0  0  0  0  0  0  0
    8.4081    8.4264   20.4112 C   0  0  0  0  0  0  0  0  0  0  0  0
    8.4043    8.3913    5.0717 C   0  0  0  0  0  0  0  0  0  0  0  0
    8.3603    9.6518    2.9461 C   0  0  0  0  0  0  0  0  0  0  0  0
    8.3603    9.6518   19.7621 C   0  0  0  0  0  0  0  0  0  0  0  0
    8.3814    9.7122    1.5698 C   0  0  0  0  0  0  0  0  0  0  0  0
    8.3814    9.7122   18.3858 C   0  0  0  0  0  0  0  0  0  0  0  0
    8.4683    9.7592   -1.4943 C   0  0  0  0  0  0  0  0  0  0  0  0
    8.4683    9.7592   15.3217 C   0  0  0  0  0  0  0  0  0  0  0  0
    8.5548    9.6446   -2.8770 C   0  0  0  0  0  0  0  0  0  0  0  0
    8.5548    9.6446   13.9390 C   0  0  0  0  0  0  0  0  0  0  0  0
    1.6752   -1.7177   -1.6715 C   0  0  0  0  0  0  0  0  0  0  0  0
    1.6752   -1.7177   15.1445 C   0  0  0  0  0  0  0  0  0  0  0  0
    1.6752   15.0983   -1.6715 C   0  0  0  0  0  0  0  0  0  0  0  0
    1.6752   15.0983   15.1445 C   0  0  0  0  0  0  0  0  0  0  0  0
   18.4912   -1.7177   -1.6715 C   0  0  0  0  0  0  0  0  0  0  0  0
   18.4912   -1.7177   15.1445 C   0  0  0  0  0  0  0  0  0  0  0  0
   18.4912   15.0983   -1.6715 C   0  0  0  0  0  0  0  0  0  0  0  0
   18.4912   15.0983   15.1445 C   0  0  0  0  0  0  0  0  0  0  0  0
    3.1525   -1.7316   -1.7090 C   0  0  0  0  0  0  0  0  0  0  0  0
    3.1525   -1.7316   15.1070 C   0  0  0  0  0  0  0  0  0  0  0  0
    3.1525   15.0844   -1.7090 C   0  0  0  0  0  0  0  0  0  0  0  0
    3.1525   15.0844   15.1070 C   0  0  0  0  0  0  0  0  0  0  0  0
   19.9685   -1.7316   -1.7090 C   0  0  0  0  0  0  0  0  0  0  0  0
   19.9685   -1.7316   15.1070 C   0  0  0  0  0  0  0  0  0  0  0  0
   19.9685   15.0844   -1.7090 C   0  0  0  0  0  0  0  0  0  0  0  0
   19.9685   15.0844   15.1070 C   0  0  0  0  0  0  0  0  0  0  0  0
    3.9037   -1.6027   -0.5481 C   0  0  0  0  0  0  0  0  0  0  0  0
    3.9037   -1.6027   16.2679 C   0  0  0  0  0  0  0  0  0  0  0  0
    3.9037   15.2133   -0.5481 C   0  0  0  0  0  0  0  0  0  0  0  0
    3.9037   15.2133   16.2679 C   0  0  0  0  0  0  0  0  0  0  0  0
    5.2754   -1.5958   -0.6321 C   0  0  0  0  0  0  0  0  0  0  0  0
    5.2754   -1.5958   16.1839 C   0  0  0  0  0  0  0  0  0  0  0  0
    5.2754   15.2202   -0.6321 C   0  0  0  0  0  0  0  0  0  0  0  0
    5.2754   15.2202   16.1839 C   0  0  0  0  0  0  0  0  0  0  0  0
    5.9761   -1.6822   -1.8493 C   0  0  0  0  0  0  0  0  0  0  0  0
    5.9761   -1.6822   14.9667 C   0  0  0  0  0  0  0  0  0  0  0  0
    5.9761   15.1338   -1.8493 C   0  0  0  0  0  0  0  0  0  0  0  0
    5.9761   15.1338   14.9667 C   0  0  0  0  0  0  0  0  0  0  0  0
    7.4519   -1.7136   -1.8137 C   0  0  0  0  0  0  0  0  0  0  0  0
    7.4519   -1.7136   15.0023 C   0  0  0  0  0  0  0  0  0  0  0  0
    7.4519   15.1024   -1.8137 C   0  0  0  0  0  0  0  0  0  0  0  0
    7.4519   15.1024   15.0023 C   0  0  0  0  0  0  0  0  0  0  0  0
    8.1301   -1.8111   -0.5881 C   0  0  0  0  0  0  0  0  0  0  0  0
    8.1301   -1.8111   16.2279 C   0  0  0  0  0  0  0  0  0  0  0  0
    8.1301   15.0049   -0.5881 C   0  0  0  0  0  0  0  0  0  0  0  0
    8.1301   15.0049   16.2279 C   0  0  0  0  0  0  0  0  0  0  0  0
    9.5039   -1.8232   -0.5065 C   0  0  0  0  0  0  0  0  0  0  0  0
    9.5039   -1.8232   16.3095 C   0  0  0  0  0  0  0  0  0  0  0  0
    9.5039   14.9928   -0.5065 C   0  0  0  0  0  0  0  0  0  0  0  0
    9.5039   14.9928   16.3095 C   0  0  0  0  0  0  0  0  0  0  0  0
   10.2701   -1.7433   -1.6630 C   0  0  0  0  0  0  0  0  0  0  0  0
   10.2701   -1.7433   15.1530 C   0  0  0  0  0  0  0  0  0  0  0  0
   10.2701   15.0727   -1.6630 C   0  0  0  0  0  0  0  0  0  0  0  0
   10.2701   15.0727   15.1530 C   0  0  0  0  0  0  0  0  0  0  0  0
   11.7468   -1.7213   -1.6078 C   0  0  0  0  0  0  0  0  0  0  0  0
   11.7468   -1.7213   15.2082 C   0  0  0  0  0  0  0  0  0  0  0  0
   11.7468   15.0947   -1.6078 C   0  0  0  0  0  0  0  0  0  0  0  0
   11.7468   15.0947   15.2082 C   0  0  0  0  0  0  0  0  0  0  0  0
    9.6285   -1.6784   -2.8923 C   0  0  0  0  0  0  0  0  0  0  0  0
    9.6285   -1.6784   13.9237 C   0  0  0  0  0  0  0  0  0  0  0  0
    9.6285   15.1376   -2.8923 C   0  0  0  0  0  0  0  0  0  0  0  0
    9.6285   15.1376   13.9237 C   0  0  0  0  0  0  0  0  0  0  0  0
    8.2520   -1.6715   -2.9624 C   0  0  0  0  0  0  0  0  0  0  0  0
    8.2520   -1.6715   13.8536 C   0  0  0  0  0  0  0  0  0  0  0  0
    8.2520   15.1445   -2.9624 C   0  0  0  0  0  0  0  0  0  0  0  0
    8.2520   15.1445   13.8536 C   0  0  0  0  0  0  0  0  0  0  0  0
    5.1916   -1.7395   -3.0278 C   0  0  0  0  0  0  0  0  0  0  0  0
    5.1916   -1.7395   13.7882 C   0  0  0  0  0  0  0  0  0  0  0  0
    5.1916   15.0765   -3.0278 C   0  0  0  0  0  0  0  0  0  0  0  0
    5.1916   15.0765   13.7882 C   0  0  0  0  0  0  0  0  0  0  0  0
    3.8084   -1.8025   -2.9251 C   0  0  0  0  0  0  0  0  0  0  0  0
    3.8084   -1.8025   13.8909 C   0  0  0  0  0  0  0  0  0  0  0  0
    3.8084   15.0135   -2.9251 C   0  0  0  0  0  0  0  0  0  0  0  0
    3.8084   15.0135   13.8909 C   0  0  0  0  0  0  0  0  0  0  0  0
   -1.6995    1.6711   -1.6778 C   0  0  0  0  0  0  0  0  0  0  0  0
   -1.6995    1.6711   15.1382 C   0  0  0  0  0  0  0  0  0  0  0  0
   -1.6995   18.4871   -1.6778 C   0  0  0  0  0  0  0  0  0  0  0  0
   -1.6995   18.4871   15.1382 C   0  0  0  0  0  0  0  0  0  0  0  0
   15.1165    1.6711   -1.6778 C   0  0  0  0  0  0  0  0  0  0  0  0
   15.1165    1.6711   15.1382 C   0  0  0  0  0  0  0  0  0  0  0  0
   15.1165   18.4871   -1.6778 C   0  0  0  0  0  0  0  0  0  0  0  0
   15.1165   18.4871   15.1382 C   0  0  0  0  0  0  0  0  0  0  0  0
   -1.6700    3.1481   -1.6692 C   0  0  0  0  0  0  0  0  0  0  0  0
   -1.6700    3.1481   15.1468 C   0  0  0  0  0  0  0  0  0  0  0  0
   -1.6700   19.9641   -1.6692 C   0  0  0  0  0  0  0  0  0  0  0  0
   -1.6700   19.9641   15.1468 C   0  0  0  0  0  0  0  0  0  0  0  0
   15.1460    3.1481   -1.6692 C   0  0  0  0  0  0  0  0  0  0  0  0
   15.1460    3.1481   15.1468 C   0  0  0  0  0  0  0  0  0  0  0  0
   15.1460   19.9641   -1.6692 C   0  0  0  0  0  0  0  0  0  0  0  0
   15.1460   19.9641   15.1468 C   0  0  0  0  0  0  0  0  0  0  0  0
   -2.8347    3.8954   -1.7862 C   0  0  0  0  0  0  0  0  0  0  0  0
   -2.8347    3.8954   15.0298 C   0  0  0  0  0  0  0  0  0  0  0  0
   13.9813    3.8954   -1.7862 C   0  0  0  0  0  0  0  0  0  0  0  0
   13.9813    3.8954   15.0298 C   0  0  0  0  0  0  0  0  0  0  0  0
   -2.7570    5.2680   -1.7998 C   0  0  0  0  0  0  0  0  0  0  0  0
   -2.7570    5.2680   15.0162 C   0  0  0  0  0  0  0  0  0  0  0  0
   14.0590    5.2680   -1.7998 C   0  0  0  0  0  0  0  0  0  0  0  0
   14.0590    5.2680   15.0162 C   0  0  0  0  0  0  0  0  0  0  0  0
   -1.5414    5.9718   -1.7255 C   0  0  0  0  0  0  0  0  0  0  0  0
   -1.5414    5.9718   15.0905 C   0  0  0  0  0  0  0  0  0  0  0  0
   15.2746    5.9718   -1.7255 C   0  0  0  0  0  0  0  0  0  0  0  0
   15.2746    5.9718   15.0905 C   0  0  0  0  0  0  0  0  0  0  0  0
   -1.5799    7.4487   -1.7215 C   0  0  0  0  0  0  0  0  0  0  0  0
   -1.5799    7.4487   15.0945 C   0  0  0  0  0  0  0  0  0  0  0  0
   15.2361    7.4487   -1.7215 C   0  0  0  0  0  0  0  0  0  0  0  0
   15.2361    7.4487   15.0945 C   0  0  0  0  0  0  0  0  0  0  0  0
   -2.8030    8.1319   -1.6247 C   0  0  0  0  0  0  0  0  0  0  0  0
   -2.8030    8.1319   15.1913 C   0  0  0  0  0  0  0  0  0  0  0  0
   14.0130    8.1319   -1.6247 C   0  0  0  0  0  0  0  0  0  0  0  0
   14.0130    8.1319   15.1913 C   0  0  0  0  0  0  0  0  0  0  0  0
   -2.8769    9.5070   -1.6163 C   0  0  0  0  0  0  0  0  0  0  0  0
   -2.8769    9.5070   15.1997 C   0  0  0  0  0  0  0  0  0  0  0  0
   13.9391    9.5070   -1.6163 C   0  0  0  0  0  0  0  0  0  0  0  0
   13.9391    9.5070   15.1997 C   0  0  0  0  0  0  0  0  0  0  0  0
   -1.7171   10.2682   -1.6999 C   0  0  0  0  0  0  0  0  0  0  0  0
   -1.7171   10.2682   15.1161 C   0  0  0  0  0  0  0  0  0  0  0  0
   15.0989   10.2682   -1.6999 C   0  0  0  0  0  0  0  0  0  0  0  0
   15.0989   10.2682   15.1161 C   0  0  0  0  0  0  0  0  0  0  0  0
   -1.7488   11.7468   -1.6735 C   0  0  0  0  0  0  0  0  0  0  0  0
   -1.7488   11.7468   15.1425 C   0  0  0  0  0  0  0  0  0  0  0  0
   15.0672   11.7468   -1.6735 C   0  0  0  0  0  0  0  0  0  0  0  0
   15.0672   11.7468   15.1425 C   0  0  0  0  0  0  0  0  0  0  0  0
   -0.4918    9.6206   -1.7832 C   0  0  0  0  0  0  0  0  0  0  0  0
   -0.4918    9.6206   15.0328 C   0  0  0  0  0  0  0  0  0  0  0  0
   16.3242    9.6206   -1.7832 C   0  0  0  0  0  0  0  0  0  0  0  0
   16.3242    9.6206   15.0328 C   0  0  0  0  0  0  0  0  0  0  0  0
   -0.4290    8.2438   -1.7908 C   0  0  0  0  0  0  0  0  0  0  0  0
   -0.4290    8.2438   15.0252 C   0  0  0  0  0  0  0  0  0  0  0  0
   16.3870    8.2438   -1.7908 C   0  0  0  0  0  0  0  0  0  0  0  0
   16.3870    8.2438   15.0252 C   0  0  0  0  0  0  0  0  0  0  0  0
   -0.3614    5.1909   -1.6495 C   0  0  0  0  0  0  0  0  0  0  0  0
   -0.3614    5.1909   15.1665 C   0  0  0  0  0  0  0  0  0  0  0  0
   16.4546    5.1909   -1.6495 C   0  0  0  0  0  0  0  0  0  0  0  0
   16.4546    5.1909   15.1665 C   0  0  0  0  0  0  0  0  0  0  0  0
   -0.4563    3.8077   -1.5966 C   0  0  0  0  0  0  0  0  0  0  0  0
   -0.4563    3.8077   15.2194 C   0  0  0  0  0  0  0  0  0  0  0  0
   16.3597    3.8077   -1.5966 C   0  0  0  0  0  0  0  0  0  0  0  0
   16.3597    3.8077   15.2194 C   0  0  0  0  0  0  0  0  0  0  0  0
   -1.6548   -1.7273    1.7136 C   0  0  0  0  0  0  0  0  0  0  0  0
   -1.6548   -1.7273   18.5296 C   0  0  0  0  0  0  0  0  0  0  0  0
   -1.6548   15.0887    1.7136 C   0  0  0  0  0  0  0  0  0  0  0  0
   -1.6548   15.0887   18.5296 C   0  0  0  0  0  0  0  0  0  0  0  0
   15.1612   -1.7273    1.7136 C   0  0  0  0  0  0  0  0  0  0  0  0
   15.1612   -1.7273   18.5296 C   0  0  0  0  0  0  0  0  0  0  0  0
   15.1612   15.0887    1.7136 C   0  0  0  0  0  0  0  0  0  0  0  0
   15.1612   15.0887   18.5296 C   0  0  0  0  0  0  0  0  0  0  0  0
   -1.6595   -1.6864    3.1916 C   0  0  0  0  0  0  0  0  0  0  0  0
   -1.6595   -1.6864   20.0076 C   0  0  0  0  0  0  0  0  0  0  0  0
   -1.6595   15.1296    3.1916 C   0  0  0  0  0  0  0  0  0  0  0  0
   -1.6595   15.1296   20.0076 C   0  0  0  0  0  0  0  0  0  0  0  0
   15.1565   -1.6864    3.1916 C   0  0  0  0  0  0  0  0  0  0  0  0
   15.1565   -1.6864   20.0076 C   0  0  0  0  0  0  0  0  0  0  0  0
   15.1565   15.1296    3.1916 C   0  0  0  0  0  0  0  0  0  0  0  0
   15.1565   15.1296   20.0076 C   0  0  0  0  0  0  0  0  0  0  0  0
   -1.7965   -2.8430    3.9486 C   0  0  0  0  0  0  0  0  0  0  0  0
   -1.7965   13.9730    3.9486 C   0  0  0  0  0  0  0  0  0  0  0  0
   15.0195   -2.8430    3.9486 C   0  0  0  0  0  0  0  0  0  0  0  0
   15.0195   13.9730    3.9486 C   0  0  0  0  0  0  0  0  0  0  0  0
   -1.8219   -2.7538    5.3201 C   0  0  0  0  0  0  0  0  0  0  0  0
   -1.8219   14.0622    5.3201 C   0  0  0  0  0  0  0  0  0  0  0  0
   14.9941   -2.7538    5.3201 C   0  0  0  0  0  0  0  0  0  0  0  0
   14.9941   14.0622    5.3201 C   0  0  0  0  0  0  0  0  0  0  0  0
   -1.7429   -1.5337    6.0149 C   0  0  0  0  0  0  0  0  0  0  0  0
   -1.7429   15.2823    6.0149 C   0  0  0  0  0  0  0  0  0  0  0  0
   15.0731   -1.5337    6.0149 C   0  0  0  0  0  0  0  0  0  0  0  0
   15.0731   15.2823    6.0149 C   0  0  0  0  0  0  0  0  0  0  0  0
   -1.7481   -1.5620    7.4914 C   0  0  0  0  0  0  0  0  0  0  0  0
   -1.7481   15.2540    7.4914 C   0  0  0  0  0  0  0  0  0  0  0  0
   15.0679   -1.5620    7.4914 C   0  0  0  0  0  0  0  0  0  0  0  0
   15.0679   15.2540    7.4914 C   0  0  0  0  0  0  0  0  0  0  0  0
   -1.6552   -2.7818    8.1797 C   0  0  0  0  0  0  0  0  0  0  0  0
   -1.6552   14.0342    8.1797 C   0  0  0  0  0  0  0  0  0  0  0  0
   15.1608   -2.7818    8.1797 C   0  0  0  0  0  0  0  0  0  0  0  0
   15.1608   14.0342    8.1797 C   0  0  0  0  0  0  0  0  0  0  0  0
   -1.6526   -2.8505    9.5545 C   0  0  0  0  0  0  0  0  0  0  0  0
   -1.6526   13.9655    9.5545 C   0  0  0  0  0  0  0  0  0  0  0  0
   15.1634   -2.8505    9.5545 C   0  0  0  0  0  0  0  0  0  0  0  0
   15.1634   13.9655    9.5545 C   0  0  0  0  0  0  0  0  0  0  0  0
   -1.7421   -1.6877   10.3090 C   0  0  0  0  0  0  0  0  0  0  0  0
   -1.7421   15.1283   10.3090 C   0  0  0  0  0  0  0  0  0  0  0  0
   15.0739   -1.6877   10.3090 C   0  0  0  0  0  0  0  0  0  0  0  0
   15.0739   15.1283   10.3090 C   0  0  0  0  0  0  0  0  0  0  0  0
   -1.7286   -1.7186   11.7862 C   0  0  0  0  0  0  0  0  0  0  0  0
   -1.7286   15.0974   11.7862 C   0  0  0  0  0  0  0  0  0  0  0  0
   15.0874   -1.7186   11.7862 C   0  0  0  0  0  0  0  0  0  0  0  0
   15.0874   15.0974   11.7862 C   0  0  0  0  0  0  0  0  0  0  0  0
   -1.8185   -0.4644    9.6581 C   0  0  0  0  0  0  0  0  0  0  0  0
   -1.8185   16.3516    9.6581 C   0  0  0  0  0  0  0  0  0  0  0  0
   14.9975   -0.4644    9.6581 C   0  0  0  0  0  0  0  0  0  0  0  0
   14.9975   16.3516    9.6581 C   0  0  0  0  0  0  0  0  0  0  0  0
   -1.8146   -0.4076    8.2812 C   0  0  0  0  0  0  0  0  0  0  0  0
   -1.8146   16.4084    8.2812 C   0  0  0  0  0  0  0  0  0  0  0  0
   15.0014   -0.4076    8.2812 C   0  0  0  0  0  0  0  0  0  0  0  0
   15.0014   16.4084    8.2812 C   0  0  0  0  0  0  0  0  0  0  0  0
   -1.6513   -0.3612    5.2251 C   0  0  0  0  0  0  0  0  0  0  0  0
   -1.6513   16.4548    5.2251 C   0  0  0  0  0  0  0  0  0  0  0  0
   15.1647   -0.3612    5.2251 C   0  0  0  0  0  0  0  0  0  0  0  0
   15.1647   16.4548    5.2251 C   0  0  0  0  0  0  0  0  0  0  0  0
   -1.5842   -0.4674    3.8432 C   0  0  0  0  0  0  0  0  0  0  0  0
   -1.5842   16.3486    3.8432 C   0  0  0  0  0  0  0  0  0  0  0  0
   15.2318   -0.4674    3.8432 C   0  0  0  0  0  0  0  0  0  0  0  0
   15.2318   16.3486    3.8432 C   0  0  0  0  0  0  0  0  0  0  0  0
   -1.0956    8.4387    5.7380 N   0  0  0  0  0  0  0  0  0  0  0  0
   15.7204    8.4387    5.7380 N   0  0  0  0  0  0  0  0  0  0  0  0
   11.1062   -1.0998    8.3842 N   0  0  0  0  0  0  0  0  0  0  0  0
   11.1062   15.7162    8.3842 N   0  0  0  0  0  0  0  0  0  0  0  0
    8.3894   11.1100   -1.0748 N   0  0  0  0  0  0  0  0  0  0  0  0
    8.3894   11.1100   15.7412 N   0  0  0  0  0  0  0  0  0  0  0  0
    5.6196   -1.6960   12.4313 N   0  0  0  0  0  0  0  0  0  0  0  0
    5.6196   15.1200   12.4313 N   0  0  0  0  0  0  0  0  0  0  0  0
    0.9957    5.6242   -1.6430 N   0  0  0  0  0  0  0  0  0  0  0  0
    0.9957    5.6242   15.1730 N   0  0  0  0  0  0  0  0  0  0  0  0
   17.8117    5.6242   -1.6430 N   0  0  0  0  0  0  0  0  0  0  0  0
   17.8117    5.6242   15.1730 N   0  0  0  0  0  0  0  0  0  0  0  0
   -1.6472    0.9983    5.6515 N   0  0  0  0  0  0  0  0  0  0  0  0
   -1.6472   17.8143    5.6515 N   0  0  0  0  0  0  0  0  0  0  0  0
   15.1688    0.9983    5.6515 N   0  0  0  0  0  0  0  0  0  0  0  0
   15.1688   17.8143    5.6515 N   0  0  0  0  0  0  0  0  0  0  0  0
    8.4016    8.3984    8.4608 O   0  0  0  0  0  0  0  0  0  0  0  0
   11.2159    8.8805    9.4502 O   0  0  0  0  0  0  0  0  0  0  0  0
   11.1887    7.8864    7.4516 O   0  0  0  0  0  0  0  0  0  0  0  0
    5.6347    8.8571    7.4750 O   0  0  0  0  0  0  0  0  0  0  0  0
    5.6040    7.9765    9.5267 O   0  0  0  0  0  0  0  0  0  0  0  0
    7.4037   11.2234    7.9414 O   0  0  0  0  0  0  0  0  0  0  0  0
    9.4146   11.1696    8.9106 O   0  0  0  0  0  0  0  0  0  0  0  0
    9.3769    5.6238    7.9925 O   0  0  0  0  0  0  0  0  0  0  0  0
    7.3321    5.6053    8.8869 O   0  0  0  0  0  0  0  0  0  0  0  0
    7.9997    7.3502   11.2594 O   0  0  0  0  0  0  0  0  0  0  0  0
    8.8661    9.4048   11.2058 O   0  0  0  0  0  0  0  0  0  0  0  0
    7.9102    9.3869    5.6621 O   0  0  0  0  0  0  0  0  0  0  0  0
    8.8989    7.3836    5.6382 O   0  0  0  0  0  0  0  0  0  0  0  0
   -1.7035   -1.7028   -1.6376 O   0  0  0  0  0  0  0  0  0  0  0  0
   -1.7035   -1.7028   15.1784 O   0  0  0  0  0  0  0  0  0  0  0  0
   -1.7035   15.1132   -1.6376 O   0  0  0  0  0  0  0  0  0  0  0  0
   -1.7035   15.1132   15.1784 O   0  0  0  0  0  0  0  0  0  0  0  0
   15.1125   -1.7028   -1.6376 O   0  0  0  0  0  0  0  0  0  0  0  0
   15.1125   -1.7028   15.1784 O   0  0  0  0  0  0  0  0  0  0  0  0
   15.1125   15.1132   -1.6376 O   0  0  0  0  0  0  0  0  0  0  0  0
   15.1125   15.1132   15.1784 O   0  0  0  0  0  0  0  0  0  0  0  0
    1.1179   -1.2124   -0.6635 O   0  0  0  0  0  0  0  0  0  0  0  0
    1.1179   -1.2124   16.1525 O   0  0  0  0  0  0  0  0  0  0  0  0
    1.1179   15.6036   -0.6635 O   0  0  0  0  0  0  0  0  0  0  0  0
    1.1179   15.6036   16.1525 O   0  0  0  0  0  0  0  0  0  0  0  0
   17.9339   -1.2124   -0.6635 O   0  0  0  0  0  0  0  0  0  0  0  0
   17.9339   -1.2124   16.1525 O   0  0  0  0  0  0  0  0  0  0  0  0
   17.9339   15.6036   -0.6635 O   0  0  0  0  0  0  0  0  0  0  0  0
   17.9339   15.6036   16.1525 O   0  0  0  0  0  0  0  0  0  0  0  0
    1.0737   -2.1991   -2.6653 O   0  0  0  0  0  0  0  0  0  0  0  0
    1.0737   -2.1991   14.1507 O   0  0  0  0  0  0  0  0  0  0  0  0
    1.0737   14.6169   -2.6653 O   0  0  0  0  0  0  0  0  0  0  0  0
    1.0737   14.6169   14.1507 O   0  0  0  0  0  0  0  0  0  0  0  0
   17.8897   -2.1991   -2.6653 O   0  0  0  0  0  0  0  0  0  0  0  0
   17.8897   -2.1991   14.1507 O   0  0  0  0  0  0  0  0  0  0  0  0
   17.8897   14.6169   -2.6653 O   0  0  0  0  0  0  0  0  0  0  0  0
   17.8897   14.6169   14.1507 O   0  0  0  0  0  0  0  0  0  0  0  0
   12.3427   -1.2614   -2.6166 O   0  0  0  0  0  0  0  0  0  0  0  0
   12.3427   -1.2614   14.1994 O   0  0  0  0  0  0  0  0  0  0  0  0
   12.3427   15.5546   -2.6166 O   0  0  0  0  0  0  0  0  0  0  0  0
   12.3427   15.5546   14.1994 O   0  0  0  0  0  0  0  0  0  0  0  0
   12.3110   -2.1530   -0.5697 O   0  0  0  0  0  0  0  0  0  0  0  0
   12.3110   -2.1530   16.2463 O   0  0  0  0  0  0  0  0  0  0  0  0
   12.3110   14.6630   -0.5697 O   0  0  0  0  0  0  0  0  0  0  0  0
   12.3110   14.6630   16.2463 O   0  0  0  0  0  0  0  0  0  0  0  0
   -2.7097    1.1120   -2.1770 O   0  0  0  0  0  0  0  0  0  0  0  0
   -2.7097    1.1120   14.6390 O   0  0  0  0  0  0  0  0  0  0  0  0
   -2.7097   17.9280   -2.1770 O   0  0  0  0  0  0  0  0  0  0  0  0
   -2.7097   17.9280   14.6390 O   0  0  0  0  0  0  0  0  0  0  0  0
   14.1063    1.1120   -2.1770 O   0  0  0  0  0  0  0  0  0  0  0  0
   14.1063    1.1120   14.6390 O   0  0  0  0  0  0  0  0  0  0  0  0
   14.1063   17.9280   -2.1770 O   0  0  0  0  0  0  0  0  0  0  0  0
   14.1063   17.9280   14.6390 O   0  0  0  0  0  0  0  0  0  0  0  0
   -0.7009    1.0728   -1.2033 O   0  0  0  0  0  0  0  0  0  0  0  0
   -0.7009    1.0728   15.6127 O   0  0  0  0  0  0  0  0  0  0  0  0
   -0.7009   17.8888   -1.2033 O   0  0  0  0  0  0  0  0  0  0  0  0
   -0.7009   17.8888   15.6127 O   0  0  0  0  0  0  0  0  0  0  0  0
   16.1151    1.0728   -1.2033 O   0  0  0  0  0  0  0  0  0  0  0  0
   16.1151    1.0728   15.6127 O   0  0  0  0  0  0  0  0  0  0  0  0
   16.1151   17.8888   -1.2033 O   0  0  0  0  0  0  0  0  0  0  0  0
   16.1151   17.8888   15.6127 O   0  0  0  0  0  0  0  0  0  0  0  0
   -0.7248   12.3434   -2.0987 O   0  0  0  0  0  0  0  0  0  0  0  0
   -0.7248   12.3434   14.7173 O   0  0  0  0  0  0  0  0  0  0  0  0
   16.0912   12.3434   -2.0987 O   0  0  0  0  0  0  0  0  0  0  0  0
   16.0912   12.3434   14.7173 O   0  0  0  0  0  0  0  0  0  0  0  0
   -2.7757   12.3133   -1.2202 O   0  0  0  0  0  0  0  0  0  0  0  0
   -2.7757   12.3133   15.5958 O   0  0  0  0  0  0  0  0  0  0  0  0
   14.0403   12.3133   -1.2202 O   0  0  0  0  0  0  0  0  0  0  0  0
   14.0403   12.3133   15.5958 O   0  0  0  0  0  0  0  0  0  0  0  0
   -2.1060   -2.7584    1.1502 O   0  0  0  0  0  0  0  0  0  0  0  0
   -2.1060   -2.7584   17.9662 O   0  0  0  0  0  0  0  0  0  0  0  0
   -2.1060   14.0576    1.1502 O   0  0  0  0  0  0  0  0  0  0  0  0
   -2.1060   14.0576   17.9662 O   0  0  0  0  0  0  0  0  0  0  0  0
   14.7100   -2.7584    1.1502 O   0  0  0  0  0  0  0  0  0  0  0  0
   14.7100   -2.7584   17.9662 O   0  0  0  0  0  0  0  0  0  0  0  0
   14.7100   14.0576    1.1502 O   0  0  0  0  0  0  0  0  0  0  0  0
   14.7100   14.0576   17.9662 O   0  0  0  0  0  0  0  0  0  0  0  0
   -1.2256   -0.7085    1.1131 O   0  0  0  0  0  0  0  0  0  0  0  0
   -1.2256   -0.7085   17.9291 O   0  0  0  0  0  0  0  0  0  0  0  0
   -1.2256   16.1075    1.1131 O   0  0  0  0  0  0  0  0  0  0  0  0
   -1.2256   16.1075   17.9291 O   0  0  0  0  0  0  0  0  0  0  0  0
   15.5904   -0.7085    1.1131 O   0  0  0  0  0  0  0  0  0  0  0  0
   15.5904   -0.7085   17.9291 O   0  0  0  0  0  0  0  0  0  0  0  0
   15.5904   16.1075    1.1131 O   0  0  0  0  0  0  0  0  0  0  0  0
   15.5904   16.1075   17.9291 O   0  0  0  0  0  0  0  0  0  0  0  0
   -2.2197   -0.7209   12.3762 O   0  0  0  0  0  0  0  0  0  0  0  0
   -2.2197   16.0951   12.3762 O   0  0  0  0  0  0  0  0  0  0  0  0
   14.5963   -0.7209   12.3762 O   0  0  0  0  0  0  0  0  0  0  0  0
   14.5963   16.0951   12.3762 O   0  0  0  0  0  0  0  0  0  0  0  0
   -1.2228   -2.7203   12.3514 O   0  0  0  0  0  0  0  0  0  0  0  0
   -1.2228   14.0957   12.3514 O   0  0  0  0  0  0  0  0  0  0  0  0
   15.5932   -2.7203   12.3514 O   0  0  0  0  0  0  0  0  0  0  0  0
   15.5932   14.0957   12.3514 O   0  0  0  0  0  0  0  0  0  0  0  0
  1463  1  0  0  0  0
  1465  1  0  0  0  0
  1470  1  0  0  0  0
  1475  1  0  0  0  0
  2463  1  0  0  0  0
  2466  1  0  0  0  0
  2468  1  0  0  0  0
  2474  1  0  0  0  0
  3463  1  0  0  0  0
  3467  1  0  0  0  0
  3471  1  0  0  0  0
  3472  1  0  0  0  0
  4463  1  0  0  0  0
  4464  1  0  0  0  0
  4469  1  0  0  0  0
  4473  1  0  0  0  0
  5476  1  0  0  0  0
  5492  1  0  0  0  0
  6477  1  0  0  0  0
  6493  1  0  0  0  0
  6552  1  0  0  0  0
  7478  1  0  0  0  0
  7494  1  0  0  0  0
  7524  1  0  0  0  0
  8479  1  0  0  0  0
  8495  1  0  0  0  0
  8525  1  0  0  0  0
  8553  1  0  0  0  0
  9480  1  0  0  0  0
  9496  1  0  0  0  0
 10481  1  0  0  0  0
 10497  1  0  0  0  0
 10554  1  0  0  0  0
 11482  1  0  0  0  0
 11498  1  0  0  0  0
 11526  1  0  0  0  0
 12483  1  0  0  0  0
 12499  1  0  0  0  0
 12527  1  0  0  0  0
 12555  1  0  0  0  0
 13476  1  0  0  0  0
 13508  1  0  0  0  0
 14477  1  0  0  0  0
 14509  1  0  0  0  0
 14548  1  0  0  0  0
 15478  1  0  0  0  0
 15510  1  0  0  0  0
 16479  1  0  0  0  0
 16511  1  0  0  0  0
 16549  1  0  0  0  0
 17480  1  0  0  0  0
 17500  1  0  0  0  0
 17512  1  0  0  0  0
 18481  1  0  0  0  0
 18501  1  0  0  0  0
 18513  1  0  0  0  0
 18550  1  0  0  0  0
 19482  1  0  0  0  0
 19502  1  0  0  0  0
 19514  1  0  0  0  0
 20483  1  0  0  0  0
 20503  1  0  0  0  0
 20515  1  0  0  0  0
 20551  1  0  0  0  0
 21476  1  0  0  0  0
 21532  1  0  0  0  0
 22477  1  0  0  0  0
 22533  1  0  0  0  0
 23478  1  0  0  0  0
 23528  1  0  0  0  0
 23534  1  0  0  0  0
 24479  1  0  0  0  0
 24529  1  0  0  0  0
 24535  1  0  0  0  0
 25480  1  0  0  0  0
 25504  1  0  0  0  0
 25536  1  0  0  0  0
 26481  1  0  0  0  0
 26505  1  0  0  0  0
 26537  1  0  0  0  0
 27482  1  0  0  0  0
 27506  1  0  0  0  0
 27530  1  0  0  0  0
 27538  1  0  0  0  0
 28483  1  0  0  0  0
 28507  1  0  0  0  0
 28531  1  0  0  0  0
 28539  1  0  0  0  0
 29476  1  0  0  0  0
 29484  1  0  0  0  0
 29516  1  0  0  0  0
 29540  1  0  0  0  0
 30477  1  0  0  0  0
 30485  1  0  0  0  0
 30517  1  0  0  0  0
 30541  1  0  0  0  0
 31478  1  0  0  0  0
 31486  1  0  0  0  0
 31518  1  0  0  0  0
 31542  1  0  0  0  0
 32479  1  0  0  0  0
 32487  1  0  0  0  0
 32519  1  0  0  0  0
 32543  1  0  0  0  0
 33480  1  0  0  0  0
 33488  1  0  0  0  0
 33520  1  0  0  0  0
 33544  1  0  0  0  0
 34481  1  0  0  0  0
 34489  1  0  0  0  0
 34521  1  0  0  0  0
 34545  1  0  0  0  0
 35482  1  0  0  0  0
 35490  1  0  0  0  0
 35522  1  0  0  0  0
 35546  1  0  0  0  0
 36483  1  0  0  0  0
 36491  1  0  0  0  0
 36523  1  0  0  0  0
 36547  1  0  0  0  0
 37180  1  0  0  0  0
 38181  1  0  0  0  0
 39182  1  0  0  0  0
 40183  1  0  0  0  0
 41188  1  0  0  0  0
 42189  1  0  0  0  0
 43190  1  0  0  0  0
 44191  1  0  0  0  0
 45195  1  0  0  0  0
 46196  1  0  0  0  0
 47197  1  0  0  0  0
 48198  1  0  0  0  0
 49447  1  0  0  0  0
 50448  1  0  0  0  0
 51447  1  0  0  0  0
 52448  1  0  0  0  0
 53201  1  0  0  0  0
 54202  1  0  0  0  0
 55206  1  0  0  0  0
 56207  1  0  0  0  0
 57208  1  0  0  0  0
 58209  1  0  0  0  0
 59214  1  0  0  0  0
 60215  1  0  0  0  0
 61216  1  0  0  0  0
 62217  1  0  0  0  0
 63221  1  0  0  0  0
 64222  1  0  0  0  0
 65223  1  0  0  0  0
 66224  1  0  0  0  0
 67449  1  0  0  0  0
 68450  1  0  0  0  0
 69449  1  0  0  0  0
 70450  1  0  0  0  0
 71227  1  0  0  0  0
 72228  1  0  0  0  0
 73232  1  0  0  0  0
 74233  1  0  0  0  0
 75234  1  0  0  0  0
 76235  1  0  0  0  0
 77240  1  0  0  0  0
 78241  1  0  0  0  0
 79242  1  0  0  0  0
 80243  1  0  0  0  0
 81247  1  0  0  0  0
 82248  1  0  0  0  0
 83249  1  0  0  0  0
 84250  1  0  0  0  0
 85451  1  0  0  0  0
 86452  1  0  0  0  0
 87451  1  0  0  0  0
 88452  1  0  0  0  0
 89253  1  0  0  0  0
 90254  1  0  0  0  0
 91271  1  0  0  0  0
 92272  1  0  0  0  0
 93273  1  0  0  0  0
 94274  1  0  0  0  0
 95275  1  0  0  0  0
 96276  1  0  0  0  0
 97277  1  0  0  0  0
 98278  1  0  0  0  0
 99287  1  0  0  0  0
100288  1  0  0  0  0
101289  1  0  0  0  0
102290  1  0  0  0  0
103291  1  0  0  0  0
104292  1  0  0  0  0
105293  1  0  0  0  0
106294  1  0  0  0  0
107304  1  0  0  0  0
108306  1  0  0  0  0
109308  1  0  0  0  0
110310  1  0  0  0  0
111453  1  0  0  0  0
112454  1  0  0  0  0
113453  1  0  0  0  0
114454  1  0  0  0  0
115316  1  0  0  0  0
116318  1  0  0  0  0
117337  1  0  0  0  0
118338  1  0  0  0  0
119339  1  0  0  0  0
120340  1  0  0  0  0
121341  1  0  0  0  0
122342  1  0  0  0  0
123353  1  0  0  0  0
124354  1  0  0  0  0
125357  1  0  0  0  0
126358  1  0  0  0  0
127367  1  0  0  0  0
128368  1  0  0  0  0
129369  1  0  0  0  0
130370  1  0  0  0  0
131371  1  0  0  0  0
132372  1  0  0  0  0
133373  1  0  0  0  0
134374  1  0  0  0  0
135455  1  0  0  0  0
136456  1  0  0  0  0
137457  1  0  0  0  0
138458  1  0  0  0  0
139455  1  0  0  0  0
140456  1  0  0  0  0
141457  1  0  0  0  0
142458  1  0  0  0  0
143379  1  0  0  0  0
144380  1  0  0  0  0
145381  1  0  0  0  0
146382  1  0  0  0  0
147400  1  0  0  0  0
148402  1  0  0  0  0
149403  1  0  0  0  0
150404  1  0  0  0  0
151405  1  0  0  0  0
152406  1  0  0  0  0
153416  1  0  0  0  0
154418  1  0  0  0  0
155420  1  0  0  0  0
156422  1  0  0  0  0
157431  1  0  0  0  0
158432  1  0  0  0  0
159433  1  0  0  0  0
160434  1  0  0  0  0
161435  1  0  0  0  0
162436  1  0  0  0  0
163437  1  0  0  0  0
164438  1  0  0  0  0
165459  1  0  0  0  0
166460  1  0  0  0  0
167461  1  0  0  0  0
168462  1  0  0  0  0
169459  1  0  0  0  0
170460  1  0  0  0  0
171461  1  0  0  0  0
172462  1  0  0  0  0
173443  1  0  0  0  0
174444  1  0  0  0  0
175445  1  0  0  0  0
176446  1  0  0  0  0
177179  1  0  0  0  0
177464  1  0  0  0  0
177465  1  0  0  0  0
178180  1  0  0  0  0
178201  1  0  0  0  0
179181  1  0  0  0  0
179202  1  0  0  0  0
180182  1  0  0  0  0
181183  1  0  0  0  0
182184  1  0  0  0  0
183185  1  0  0  0  0
184186  1  0  0  0  0
184199  1  0  0  0  0
185187  1  0  0  0  0
185200  1  0  0  0  0
186188  1  0  0  0  0
186197  1  0  0  0  0
187189  1  0  0  0  0
187198  1  0  0  0  0
188190  1  0  0  0  0
189191  1  0  0  0  0
190192  1  0  0  0  0
191193  1  0  0  0  0
192194  1  0  0  0  0
192195  1  0  0  0  0
193196  1  0  0  0  0
194466  1  0  0  0  0
194467  1  0  0  0  0
195197  1  0  0  0  0
196198  1  0  0  0  0
199201  1  0  0  0  0
199447  1  0  0  0  0
200202  1  0  0  0  0
200448  1  0  0  0  0
203205  1  0  0  0  0
203468  1  0  0  0  0
203469  1  0  0  0  0
204206  1  0  0  0  0
204227  1  0  0  0  0
205207  1  0  0  0  0
205228  1  0  0  0  0
206208  1  0  0  0  0
207209  1  0  0  0  0
208210  1  0  0  0  0
209211  1  0  0  0  0
210212  1  0  0  0  0
210225  1  0  0  0  0
211213  1  0  0  0  0
211226  1  0  0  0  0
212214  1  0  0  0  0
212223  1  0  0  0  0
213215  1  0  0  0  0
213224  1  0  0  0  0
214216  1  0  0  0  0
215217  1  0  0  0  0
216218  1  0  0  0  0
217219  1  0  0  0  0
218220  1  0  0  0  0
218221  1  0  0  0  0
219222  1  0  0  0  0
220470  1  0  0  0  0
220471  1  0  0  0  0
221223  1  0  0  0  0
222224  1  0  0  0  0
225227  1  0  0  0  0
225449  1  0  0  0  0
226228  1  0  0  0  0
226450  1  0  0  0  0
229231  1  0  0  0  0
229472  1  0  0  0  0
229473  1  0  0  0  0
230232  1  0  0  0  0
230253  1  0  0  0  0
231233  1  0  0  0  0
231254  1  0  0  0  0
232234  1  0  0  0  0
233235  1  0  0  0  0
234236  1  0  0  0  0
235237  1  0  0  0  0
236238  1  0  0  0  0
236251  1  0  0  0  0
237239  1  0  0  0  0
237252  1  0  0  0  0
238240  1  0  0  0  0
238249  1  0  0  0  0
239241  1  0  0  0  0
239250  1  0  0  0  0
240242  1  0  0  0  0
241243  1  0  0  0  0
242244  1  0  0  0  0
243245  1  0  0  0  0
244246  1  0  0  0  0
244247  1  0  0  0  0
245248  1  0  0  0  0
246474  1  0  0  0  0
246475  1  0  0  0  0
247249  1  0  0  0  0
248250  1  0  0  0  0
251253  1  0  0  0  0
251451  1  0  0  0  0
252254  1  0  0  0  0
252452  1  0  0  0  0
255263  1  0  0  0  0
255484  1  0  0  0  0
255492  1  0  0  0  0
256264  1  0  0  0  0
256485  1  0  0  0  0
256493  1  0  0  0  0
257265  1  0  0  0  0
257486  1  0  0  0  0
257494  1  0  0  0  0
258266  1  0  0  0  0
258487  1  0  0  0  0
258495  1  0  0  0  0
259267  1  0  0  0  0
259488  1  0  0  0  0
259496  1  0  0  0  0
260268  1  0  0  0  0
260489  1  0  0  0  0
260497  1  0  0  0  0
261269  1  0  0  0  0
261490  1  0  0  0  0
261498  1  0  0  0  0
262270  1  0  0  0  0
262491  1  0  0  0  0
262499  1  0  0  0  0
263271  1  0  0  0  0
263315  1  0  0  0  0
264272  1  0  0  0  0
264316  1  0  0  0  0
265273  1  0  0  0  0
265317  1  0  0  0  0
266274  1  0  0  0  0
266318  1  0  0  0  0
271275  1  0  0  0  0
272276  1  0  0  0  0
273277  1  0  0  0  0
274278  1  0  0  0  0
275279  1  0  0  0  0
276280  1  0  0  0  0
277281  1  0  0  0  0
278282  1  0  0  0  0
279283  1  0  0  0  0
279311  1  0  0  0  0
280284  1  0  0  0  0
280312  1  0  0  0  0
281285  1  0  0  0  0
281313  1  0  0  0  0
282286  1  0  0  0  0
282314  1  0  0  0  0
283287  1  0  0  0  0
283307  1  0  0  0  0
284288  1  0  0  0  0
284308  1  0  0  0  0
285289  1  0  0  0  0
285309  1  0  0  0  0
286290  1  0  0  0  0
286310  1  0  0  0  0
287291  1  0  0  0  0
288292  1  0  0  0  0
289293  1  0  0  0  0
290294  1  0  0  0  0
291295  1  0  0  0  0
292296  1  0  0  0  0
293297  1  0  0  0  0
294298  1  0  0  0  0
295299  1  0  0  0  0
295303  1  0  0  0  0
296300  1  0  0  0  0
296304  1  0  0  0  0
297301  1  0  0  0  0
297305  1  0  0  0  0
298302  1  0  0  0  0
298306  1  0  0  0  0
299500  1  0  0  0  0
299504  1  0  0  0  0
300501  1  0  0  0  0
300505  1  0  0  0  0
301502  1  0  0  0  0
301506  1  0  0  0  0
302503  1  0  0  0  0
302507  1  0  0  0  0
303307  1  0  0  0  0
304308  1  0  0  0  0
305309  1  0  0  0  0
306310  1  0  0  0  0
311315  1  0  0  0  0
312316  1  0  0  0  0
312453  1  0  0  0  0
313317  1  0  0  0  0
314318  1  0  0  0  0
314454  1  0  0  0  0
319327  1  0  0  0  0
319508  1  0  0  0  0
319516  1  0  0  0  0
320328  1  0  0  0  0
320509  1  0  0  0  0
320517  1  0  0  0  0
321329  1  0  0  0  0
321510  1  0  0  0  0
321518  1  0  0  0  0
322330  1  0  0  0  0
322511  1  0  0  0  0
322519  1  0  0  0  0
323331  1  0  0  0  0
323512  1  0  0  0  0
323520  1  0  0  0  0
324332  1  0  0  0  0
324513  1  0  0  0  0
324521  1  0  0  0  0
325333  1  0  0  0  0
325514  1  0  0  0  0
325522  1  0  0  0  0
326334  1  0  0  0  0
326515  1  0  0  0  0
326523  1  0  0  0  0
327335  1  0  0  0  0
327379  1  0  0  0  0
328336  1  0  0  0  0
328380  1  0  0  0  0
331337  1  0  0  0  0
331381  1  0  0  0  0
332338  1  0  0  0  0
332382  1  0  0  0  0
335339  1  0  0  0  0
336340  1  0  0  0  0
337341  1  0  0  0  0
338342  1  0  0  0  0
339343  1  0  0  0  0
340344  1  0  0  0  0
341345  1  0  0  0  0
342346  1  0  0  0  0
343347  1  0  0  0  0
343375  1  0  0  0  0
344348  1  0  0  0  0
344376  1  0  0  0  0
345349  1  0  0  0  0
345377  1  0  0  0  0
346350  1  0  0  0  0
346378  1  0  0  0  0
347351  1  0  0  0  0
347371  1  0  0  0  0
348352  1  0  0  0  0
348372  1  0  0  0  0
349353  1  0  0  0  0
349373  1  0  0  0  0
350354  1  0  0  0  0
350374  1  0  0  0  0
351355  1  0  0  0  0
352356  1  0  0  0  0
353357  1  0  0  0  0
354358  1  0  0  0  0
355359  1  0  0  0  0
356360  1  0  0  0  0
357361  1  0  0  0  0
358362  1  0  0  0  0
359363  1  0  0  0  0
359367  1  0  0  0  0
360364  1  0  0  0  0
360368  1  0  0  0  0
361365  1  0  0  0  0
361369  1  0  0  0  0
362366  1  0  0  0  0
362370  1  0  0  0  0
363524  1  0  0  0  0
363528  1  0  0  0  0
364525  1  0  0  0  0
364529  1  0  0  0  0
365526  1  0  0  0  0
365530  1  0  0  0  0
366527  1  0  0  0  0
366531  1  0  0  0  0
367371  1  0  0  0  0
368372  1  0  0  0  0
369373  1  0  0  0  0
370374  1  0  0  0  0
375379  1  0  0  0  0
375455  1  0  0  0  0
376380  1  0  0  0  0
376456  1  0  0  0  0
377381  1  0  0  0  0
377457  1  0  0  0  0
378382  1  0  0  0  0
378458  1  0  0  0  0
383391  1  0  0  0  0
383532  1  0  0  0  0
383540  1  0  0  0  0
384392  1  0  0  0  0
384533  1  0  0  0  0
384541  1  0  0  0  0
385393  1  0  0  0  0
385534  1  0  0  0  0
385542  1  0  0  0  0
386394  1  0  0  0  0
386535  1  0  0  0  0
386543  1  0  0  0  0
387395  1  0  0  0  0
387536  1  0  0  0  0
387544  1  0  0  0  0
388396  1  0  0  0  0
388537  1  0  0  0  0
388545  1  0  0  0  0
389397  1  0  0  0  0
389538  1  0  0  0  0
389546  1  0  0  0  0
390398  1  0  0  0  0
390539  1  0  0  0  0
390547  1  0  0  0  0
391399  1  0  0  0  0
391443  1  0  0  0  0
393400  1  0  0  0  0
393444  1  0  0  0  0
395401  1  0  0  0  0
395445  1  0  0  0  0
397402  1  0  0  0  0
397446  1  0  0  0  0
399403  1  0  0  0  0
400404  1  0  0  0  0
401405  1  0  0  0  0
402406  1  0  0  0  0
403407  1  0  0  0  0
404408  1  0  0  0  0
405409  1  0  0  0  0
406410  1  0  0  0  0
407411  1  0  0  0  0
407439  1  0  0  0  0
408412  1  0  0  0  0
408440  1  0  0  0  0
409413  1  0  0  0  0
409441  1  0  0  0  0
410414  1  0  0  0  0
410442  1  0  0  0  0
411415  1  0  0  0  0
411435  1  0  0  0  0
412416  1  0  0  0  0
412436  1  0  0  0  0
413417  1  0  0  0  0
413437  1  0  0  0  0
414418  1  0  0  0  0
414438  1  0  0  0  0
415419  1  0  0  0  0
416420  1  0  0  0  0
417421  1  0  0  0  0
418422  1  0  0  0  0
419423  1  0  0  0  0
420424  1  0  0  0  0
421425  1  0  0  0  0
422426  1  0  0  0  0
423427  1  0  0  0  0
423431  1  0  0  0  0
424428  1  0  0  0  0
424432  1  0  0  0  0
425429  1  0  0  0  0
425433  1  0  0  0  0
426430  1  0  0  0  0
426434  1  0  0  0  0
427548  1  0  0  0  0
427552  1  0  0  0  0
428549  1  0  0  0  0
428553  1  0  0  0  0
429550  1  0  0  0  0
429554  1  0  0  0  0
430551  1  0  0  0  0
430555  1  0  0  0  0
431435  1  0  0  0  0
432436  1  0  0  0  0
433437  1  0  0  0  0
434438  1  0  0  0  0
439443  1  0  0  0  0
439459  1  0  0  0  0
440444  1  0  0  0  0
440460  1  0  0  0  0
441445  1  0  0  0  0
441461  1  0  0  0  0
442446  1  0  0  0  0
442462  1  0  0  0  0
M  END
$$$$
