@<TRIPOS>MOLECULE
nh2_bpdc_zn4o_pcu_ip2_off400
573 636 0 0 0
SMALL
NO_CHARGES

@<TRIPOS>ATOM
     1 Zn1         9.427416     7.376214     7.413972 Zn   1 RES 0.0000
     2 Zn2         7.389175     9.448430     7.431086 Zn   1 RES 0.0000
     3 Zn3         7.372752     7.374841     9.505481 Zn   1 RES 0.0000
     4 Zn4         9.454513     9.425473     9.467993 Zn   1 RES 0.0000
     5 Zn5        -0.681801    -2.722429    -2.690379 Zn   1 RES 0.0000
     6 Zn6        -0.681801    -2.722429    14.125621 Zn   1 RES 0.0000
     7 Zn7        -0.681801    14.093571    -2.690379 Zn   1 RES 0.0000
     8 Zn8        -0.681801    14.093571    14.125621 Zn   1 RES 0.0000
     9 Zn9        16.134199    -2.722429    -2.690379 Zn   1 RES 0.0000
    10 Zn10       16.134199    -2.722429    14.125621 Zn   1 RES 0.0000
    11 Zn11       16.134199    14.093571    -2.690379 Zn   1 RES 0.0000
    12 Zn12       16.134199    14.093571    14.125621 Zn   1 RES 0.0000
    13 Zn13       -2.724553    -0.662191    -2.665927 Zn   1 RES 0.0000
    14 Zn14       -2.724553    -0.662191    14.150073 Zn   1 RES 0.0000
    15 Zn15       -2.724553    16.153809    -2.665927 Zn   1 RES 0.0000
    16 Zn16       -2.724553    16.153809    14.150073 Zn   1 RES 0.0000
    17 Zn17       14.091447    -0.662191    -2.665927 Zn   1 RES 0.0000
    18 Zn18       14.091447    -0.662191    14.150073 Zn   1 RES 0.0000
    19 Zn19       14.091447    16.153809    -2.665927 Zn   1 RES 0.0000
    20 Zn20       14.091447    16.153809    14.150073 Zn   1 RES 0.0000
    21 Zn21       -2.729470    -2.735622    -0.600104 Zn   1 RES 0.0000
    22 Zn22       -2.729470    -2.735622    16.215896 Zn   1 RES 0.0000
    23 Zn23       -2.729470    14.080378    -0.600104 Zn   1 RES 0.0000
    24 Zn24       -2.729470    14.080378    16.215896 Zn   1 RES 0.0000
    25 Zn25       14.086530    -2.735622    -0.600104 Zn   1 RES 0.0000
    26 Zn26       14.086530    -2.735622    16.215896 Zn   1 RES 0.0000
    27 Zn27       14.086530    14.080378    -0.600104 Zn   1 RES 0.0000
    28 Zn28       14.086530    14.080378    16.215896 Zn   1 RES 0.0000
    29 Zn29       -0.648566    -0.671180    -0.633181 Zn   1 RES 0.0000
    30 Zn30       -0.648566    -0.671180    16.182819 Zn   1 RES 0.0000
    31 Zn31       -0.648566    16.144820    -0.633181 Zn   1 RES 0.0000
    32 Zn32       -0.648566    16.144820    16.182819 Zn   1 RES 0.0000
    33 Zn33       16.167434    -0.671180    -0.633181 Zn   1 RES 0.0000
    34 Zn34       16.167434    -0.671180    16.182819 Zn   1 RES 0.0000
    35 Zn35       16.167434    16.144820    -0.633181 Zn   1 RES 0.0000
    36 Zn36       16.167434    16.144820    16.182819 Zn   1 RES 0.0000
    37 H37       -3.304442     8.605051    10.525865 H    1 RES 0.0000
    38 H38       13.511558     8.605051    10.525865 H    1 RES 0.0000
    39 H39       -0.904339     8.656038    10.419729 H    1 RES 0.0000
    40 H40       15.911661     8.656038    10.419729 H    1 RES 0.0000
    41 H41        0.881123     8.281896    10.453664 H    1 RES 0.0000
    42 H42       17.697123     8.281896    10.453664 H    1 RES 0.0000
    43 H43        3.295745     8.276886    10.558173 H    1 RES 0.0000
    44 H44       20.111745     8.276886    10.558173 H    1 RES 0.0000
    45 H45        3.513240     8.517396     6.319795 H    1 RES 0.0000
    46 H46       20.329240     8.517396     6.319795 H    1 RES 0.0000
    47 H47        1.105137     8.508887     6.171183 H    1 RES 0.0000
    48 H48       17.921137     8.508887     6.171183 H    1 RES 0.0000
    49 H49       -0.458669     9.199244     5.542228 H    1 RES 0.0000
    50 H50       16.357331     9.199244     5.542228 H    1 RES 0.0000
    51 H51       -0.729660     7.557718     5.401672 H    1 RES 0.0000
    52 H52       16.086340     7.557718     5.401672 H    1 RES 0.0000
    53 H53       -3.472036     8.237387     6.283159 H    1 RES 0.0000
    54 H54       13.343964     8.237387     6.283159 H    1 RES 0.0000
    55 H55        6.320770    -3.313209     8.316631 H    1 RES 0.0000
    56 H56        6.320770    13.502791     8.316631 H    1 RES 0.0000
    57 H57        6.424320    -0.914039     8.302671 H    1 RES 0.0000
    58 H58        6.424320    15.901961     8.302671 H    1 RES 0.0000
    59 H59        6.385066     0.876936     8.585586 H    1 RES 0.0000
    60 H60        6.385066    17.692936     8.585586 H    1 RES 0.0000
    61 H61        6.280488     3.287421     8.572578 H    1 RES 0.0000
    62 H62        6.280488    20.103421     8.572578 H    1 RES 0.0000
    63 H63       10.518570     3.506670     8.335614 H    1 RES 0.0000
    64 H64       10.518570    20.322670     8.335614 H    1 RES 0.0000
    65 H65       10.669724     1.098892     8.398643 H    1 RES 0.0000
    66 H66       10.669724    17.914892     8.398643 H    1 RES 0.0000
    67 H67       11.269581    -0.417433     7.657977 H    1 RES 0.0000
    68 H68       11.269581    16.398567     7.657977 H    1 RES 0.0000
    69 H69       11.514302    -0.820715     9.265980 H    1 RES 0.0000
    70 H70       11.514302    15.995285     9.265980 H    1 RES 0.0000
    71 H71       10.569808    -3.481008     8.602956 H    1 RES 0.0000
    72 H72       10.569808    13.334992     8.602956 H    1 RES 0.0000
    73 H73        8.261919     6.311245    -3.253351 H    1 RES 0.0000
    74 H74        8.261919     6.311245    13.562649 H    1 RES 0.0000
    75 H75        8.233541     6.435344    -0.855041 H    1 RES 0.0000
    76 H76        8.233541     6.435344    15.960959 H    1 RES 0.0000
    77 H77        8.574310     6.406676     0.928522 H    1 RES 0.0000
    78 H78        8.574310     6.406676    17.744522 H    1 RES 0.0000
    79 H79        8.550672     6.312248     3.339124 H    1 RES 0.0000
    80 H80        8.550672     6.312248    20.155124 H    1 RES 0.0000
    81 H81        8.309440    10.551642     3.539050 H    1 RES 0.0000
    82 H82        8.309440    10.551642    20.355050 H    1 RES 0.0000
    83 H83        8.387527    10.692382     1.133648 H    1 RES 0.0000
    84 H84        8.387527    10.692382    17.949648 H    1 RES 0.0000
    85 H85        7.678659    11.277002    -0.376971 H    1 RES 0.0000
    86 H86        7.678659    11.277002    16.439029 H    1 RES 0.0000
    87 H87        9.278180    11.515902    -0.814101 H    1 RES 0.0000
    88 H88        9.278180    11.515902    16.001899 H    1 RES 0.0000
    89 H89        8.621161    10.552917    -3.454576 H    1 RES 0.0000
    90 H90        8.621161    10.552917    13.361424 H    1 RES 0.0000
    91 H91        3.405526    -1.509198     0.403444 H    1 RES 0.0000
    92 H92        3.405526    -1.509198    17.219444 H    1 RES 0.0000
    93 H93        3.405526    15.306802     0.403444 H    1 RES 0.0000
    94 H94        3.405526    15.306802    17.219444 H    1 RES 0.0000
    95 H95       20.221526    -1.509198     0.403444 H    1 RES 0.0000
    96 H96       20.221526    -1.509198    17.219444 H    1 RES 0.0000
    97 H97       20.221526    15.306802     0.403444 H    1 RES 0.0000
    98 H98       20.221526    15.306802    17.219444 H    1 RES 0.0000
    99 H99        5.808141    -1.486894     0.298092 H    1 RES 0.0000
   100 H100       5.808141    -1.486894    17.114092 H    1 RES 0.0000
   101 H101       5.808141    15.329106     0.298092 H    1 RES 0.0000
   102 H102       5.808141    15.329106    17.114092 H    1 RES 0.0000
   103 H103       7.586105    -1.888870     0.336840 H    1 RES 0.0000
   104 H104       7.586105    -1.888870    17.152840 H    1 RES 0.0000
   105 H105       7.586105    14.927130     0.336840 H    1 RES 0.0000
   106 H106       7.586105    14.927130    17.152840 H    1 RES 0.0000
   107 H107       9.998434    -1.875119     0.451104 H    1 RES 0.0000
   108 H108       9.998434    -1.875119    17.267104 H    1 RES 0.0000
   109 H109       9.998434    14.940881     0.451104 H    1 RES 0.0000
   110 H110       9.998434    14.940881    17.267104 H    1 RES 0.0000
   111 H111      10.227932    -1.635029    13.027734 H    1 RES 0.0000
   112 H112      10.227932    15.180971    13.027734 H    1 RES 0.0000
   113 H113       7.823188    -1.637592    12.869800 H    1 RES 0.0000
   114 H114       7.823188    15.178408    12.869800 H    1 RES 0.0000
   115 H115       6.233829    -0.914399    12.240528 H    1 RES 0.0000
   116 H116       6.233829    15.901601    12.240528 H    1 RES 0.0000
   117 H117       6.032645    -2.563634    12.112369 H    1 RES 0.0000
   118 H118       6.032645    14.252366    12.112369 H    1 RES 0.0000
   119 H119       3.238978    -1.869262    12.978122 H    1 RES 0.0000
   120 H120       3.238978    14.946738    12.978122 H    1 RES 0.0000
   121 H121      20.054978    -1.869262    12.978122 H    1 RES 0.0000
   122 H122      20.054978    14.946738    12.978122 H    1 RES 0.0000
   123 H123      13.029336     3.393492    -1.852323 H    1 RES 0.0000
   124 H124      13.029336     3.393492    14.963677 H    1 RES 0.0000
   125 H125      13.029336    20.209492    -1.852323 H    1 RES 0.0000
   126 H126      13.029336    20.209492    14.963677 H    1 RES 0.0000
   127 H127      -3.690870     5.797752    -1.894008 H    1 RES 0.0000
   128 H128      -3.690870     5.797752    14.921992 H    1 RES 0.0000
   129 H129      13.125130     5.797752    -1.894008 H    1 RES 0.0000
   130 H130      13.125130     5.797752    14.921992 H    1 RES 0.0000
   131 H131      13.083970     7.594354    -1.543984 H    1 RES 0.0000
   132 H132      13.083970     7.594354    15.272016 H    1 RES 0.0000
   133 H133      12.983837    10.004673    -1.557684 H    1 RES 0.0000
   134 H134      12.983837    10.004673    15.258316 H    1 RES 0.0000
   135 H135       0.406161    10.216534    -1.837683 H    1 RES 0.0000
   136 H136       0.406161    10.216534    14.978317 H    1 RES 0.0000
   137 H137      17.222161    10.216534    -1.837683 H    1 RES 0.0000
   138 H138      17.222161    10.216534    14.978317 H    1 RES 0.0000
   139 H139       0.549173     7.805773    -1.853576 H    1 RES 0.0000
   140 H140       0.549173     7.805773    14.962424 H    1 RES 0.0000
   141 H141      17.365173     7.805773    -1.853576 H    1 RES 0.0000
   142 H142      17.365173     7.805773    14.962424 H    1 RES 0.0000
   143 H143       1.241387     6.142760    -2.477376 H    1 RES 0.0000
   144 H144       1.241387     6.142760    14.338624 H    1 RES 0.0000
   145 H145      18.057387     6.142760    -2.477376 H    1 RES 0.0000
   146 H146      18.057387     6.142760    14.338624 H    1 RES 0.0000
   147 H147       1.247727     6.142612    -0.811069 H    1 RES 0.0000
   148 H148       1.247727     6.142612    16.004931 H    1 RES 0.0000
   149 H149      18.063727     6.142612    -0.811069 H    1 RES 0.0000
   150 H150      18.063727     6.142612    16.004931 H    1 RES 0.0000
   151 H151       0.459676     3.243619    -1.525120 H    1 RES 0.0000
   152 H152       0.459676     3.243619    15.290880 H    1 RES 0.0000
   153 H153       0.459676    20.059619    -1.525120 H    1 RES 0.0000
   154 H154       0.459676    20.059619    15.290880 H    1 RES 0.0000
   155 H155      17.275676     3.243619    -1.525120 H    1 RES 0.0000
   156 H156      17.275676     3.243619    15.290880 H    1 RES 0.0000
   157 H157      17.275676    20.059619    -1.525120 H    1 RES 0.0000
   158 H158      17.275676    20.059619    15.290880 H    1 RES 0.0000
   159 H159      -1.874030    13.017333     3.456037 H    1 RES 0.0000
   160 H160      -1.874030    13.017333    20.272037 H    1 RES 0.0000
   161 H161      14.941970    13.017333     3.456037 H    1 RES 0.0000
   162 H162      14.941970    13.017333    20.272037 H    1 RES 0.0000
   163 H163      -1.935392    -3.681173     5.857060 H    1 RES 0.0000
   164 H164      -1.935392    13.134827     5.857060 H    1 RES 0.0000
   165 H165      14.880608    -3.681173     5.857060 H    1 RES 0.0000
   166 H166      14.880608    13.134827     5.857060 H    1 RES 0.0000
   167 H167      -1.570301    13.103550     7.647066 H    1 RES 0.0000
   168 H168      15.245699    13.103550     7.647066 H    1 RES 0.0000
   169 H169      -1.597796    13.013053    10.057255 H    1 RES 0.0000
   170 H170      15.218204    13.013053    10.057255 H    1 RES 0.0000
   171 H171      -1.875380     0.436367    10.250012 H    1 RES 0.0000
   172 H172      -1.875380    17.252367    10.250012 H    1 RES 0.0000
   173 H173      14.940620     0.436367    10.250012 H    1 RES 0.0000
   174 H174      14.940620    17.252367    10.250012 H    1 RES 0.0000
   175 H175      -1.859307     0.570011     7.840237 H    1 RES 0.0000
   176 H176      -1.859307    17.386011     7.840237 H    1 RES 0.0000
   177 H177      14.956693     0.570011     7.840237 H    1 RES 0.0000
   178 H178      14.956693    17.386011     7.840237 H    1 RES 0.0000
   179 H179      -2.466199     1.236601     6.196937 H    1 RES 0.0000
   180 H180      -2.466199    18.052601     6.196937 H    1 RES 0.0000
   181 H181      14.349801     1.236601     6.196937 H    1 RES 0.0000
   182 H182      14.349801    18.052601     6.196937 H    1 RES 0.0000
   183 H183      -0.800977     1.258408     6.142357 H    1 RES 0.0000
   184 H184      -0.800977    18.074408     6.142357 H    1 RES 0.0000
   185 H185      16.015023     1.258408     6.142357 H    1 RES 0.0000
   186 H186      16.015023    18.074408     6.142357 H    1 RES 0.0000
   187 H187      -1.505673     0.442930     3.270715 H    1 RES 0.0000
   188 H188      -1.505673     0.442930    20.086715 H    1 RES 0.0000
   189 H189      -1.505673    17.258930     3.270715 H    1 RES 0.0000
   190 H190      -1.505673    17.258930    20.086715 H    1 RES 0.0000
   191 H191      15.310327     0.442930     3.270715 H    1 RES 0.0000
   192 H192      15.310327     0.442930    20.086715 H    1 RES 0.0000
   193 H193      15.310327    17.258930     3.270715 H    1 RES 0.0000
   194 H194      15.310327    17.258930    20.086715 H    1 RES 0.0000
   195 C195      11.780919     8.376182     8.446189 C    1 RES 0.0000
   196 C196      -3.557624     8.379183     8.412522 C    1 RES 0.0000
   197 C197      13.258376     8.379183     8.412522 C    1 RES 0.0000
   198 C198      -2.807253     8.518716     9.573094 C    1 RES 0.0000
   199 C199      14.008747     8.518716     9.573094 C    1 RES 0.0000
   200 C200      -1.435552     8.542824     9.488948 C    1 RES 0.0000
   201 C201      15.380448     8.542824     9.488948 C    1 RES 0.0000
   202 C202      -0.735225     8.465113     8.270769 C    1 RES 0.0000
   203 C203      16.080775     8.465113     8.270769 C    1 RES 0.0000
   204 C204       0.741424     8.445082     8.303708 C    1 RES 0.0000
   205 C205      17.557424     8.445082     8.303708 C    1 RES 0.0000
   206 C206       1.423651     8.353484     9.527509 C    1 RES 0.0000
   207 C207      18.239651     8.353484     9.527509 C    1 RES 0.0000
   208 C208       2.797993     8.333705     9.603030 C    1 RES 0.0000
   209 C209      19.613993     8.333705     9.603030 C    1 RES 0.0000
   210 C210       3.561081     8.406449     8.444023 C    1 RES 0.0000
   211 C211      20.377081     8.406449     8.444023 C    1 RES 0.0000
   212 C212       5.038754     8.410195     8.489448 C    1 RES 0.0000
   213 C213       2.915462     8.474175     7.217033 C    1 RES 0.0000
   214 C214      19.731462     8.474175     7.217033 C    1 RES 0.0000
   215 C215       1.538714     8.482046     7.152667 C    1 RES 0.0000
   216 C216      18.354714     8.482046     7.152667 C    1 RES 0.0000
   217 C217      -1.520633     8.394612     7.093264 C    1 RES 0.0000
   218 C218      15.295367     8.394612     7.093264 C    1 RES 0.0000
   219 C219      -2.903119     8.313465     7.195985 C    1 RES 0.0000
   220 C220      13.912881     8.313465     7.195985 C    1 RES 0.0000
   221 C221       8.410926    11.773948     8.453910 C    1 RES 0.0000
   222 C222       8.439455    -3.565810     8.493777 C    1 RES 0.0000
   223 C223       8.439455    13.250190     8.493777 C    1 RES 0.0000
   224 C224       7.274918    -2.816071     8.384788 C    1 RES 0.0000
   225 C225       7.274918    13.999929     8.384788 C    1 RES 0.0000
   226 C226       7.358699    -1.444587     8.375919 C    1 RES 0.0000
   227 C227       7.358699    15.371413     8.375919 C    1 RES 0.0000
   228 C228       8.577727    -0.743081     8.423680 C    1 RES 0.0000
   229 C229       8.577727    16.072919     8.423680 C    1 RES 0.0000
   230 C230       8.539169     0.733608     8.435047 C    1 RES 0.0000
   231 C231       8.539169    17.549608     8.435047 C    1 RES 0.0000
   232 C232       7.313848     1.415643     8.514296 C    1 RES 0.0000
   233 C233       7.313848    18.231643     8.514296 C    1 RES 0.0000
   234 C234       7.236283     2.790491     8.519005 C    1 RES 0.0000
   235 C235       7.236283    19.606491     8.519005 C    1 RES 0.0000
   236 C236       8.393488     3.554913     8.434355 C    1 RES 0.0000
   237 C237       8.393488    20.370913     8.434355 C    1 RES 0.0000
   238 C238       8.357789     5.033184     8.436550 C    1 RES 0.0000
   239 C239       9.621514     2.909346     8.383950 C    1 RES 0.0000
   240 C240       9.621514    19.725346     8.383950 C    1 RES 0.0000
   241 C241       9.688510     1.533302     8.400839 C    1 RES 0.0000
   242 C242       9.688510    18.349302     8.400839 C    1 RES 0.0000
   243 C243       9.757519    -1.527374     8.472604 C    1 RES 0.0000
   244 C244       9.757519    15.288626     8.472604 C    1 RES 0.0000
   245 C245       9.655736    -2.911167     8.551863 C    1 RES 0.0000
   246 C246       9.655736    13.904833     8.551863 C    1 RES 0.0000
   247 C247       8.457444     8.382441    11.814759 C    1 RES 0.0000
   248 C248       8.483829     8.423821    -3.524011 C    1 RES 0.0000
   249 C249       8.483829     8.423821    13.291989 C    1 RES 0.0000
   250 C250       8.347421     7.268173    -2.764064 C    1 RES 0.0000
   251 C251       8.347421     7.268173    14.051936 C    1 RES 0.0000
   252 C252       8.331502     7.363239    -1.393582 C    1 RES 0.0000
   253 C253       8.331502     7.363239    15.422418 C    1 RES 0.0000
   254 C254       8.399626     8.586580    -0.701194 C    1 RES 0.0000
   255 C255       8.399626     8.586580    16.114806 C    1 RES 0.0000
   256 C256       8.412703     8.559126     0.775389 C    1 RES 0.0000
   257 C257       8.412703     8.559126    17.591389 C    1 RES 0.0000
   258 C258       8.495382     7.337103     1.462750 C    1 RES 0.0000
   259 C259       8.495382     7.337103    18.278750 C    1 RES 0.0000
   260 C260       8.498437     7.265545     2.837424 C    1 RES 0.0000
   261 C261       8.498437     7.265545    19.653424 C    1 RES 0.0000
   262 C262       8.408088     8.426404     3.595187 C    1 RES 0.0000
   263 C263       8.408088     8.426404    20.411187 C    1 RES 0.0000
   264 C264       8.404252     8.391316     5.071715 C    1 RES 0.0000
   265 C265       8.360292     9.651776     2.946141 C    1 RES 0.0000
   266 C266       8.360292     9.651776    19.762141 C    1 RES 0.0000
   267 C267       8.381385     9.712241     1.569815 C    1 RES 0.0000
   268 C268       8.381385     9.712241    18.385815 C    1 RES 0.0000
   269 C269       8.468326     9.759231    -1.494329 C    1 RES 0.0000
   270 C270       8.468326     9.759231    15.321671 C    1 RES 0.0000
   271 C271       8.554841     9.644644    -2.877040 C    1 RES 0.0000
   272 C272       8.554841     9.644644    13.938960 C    1 RES 0.0000
   273 C273       1.675238    -1.717715    -1.671499 C    1 RES 0.0000
   274 C274       1.675238    -1.717715    15.144501 C    1 RES 0.0000
   275 C275       1.675238    15.098285    -1.671499 C    1 RES 0.0000
   276 C276       1.675238    15.098285    15.144501 C    1 RES 0.0000
   277 C277      18.491238    -1.717715    -1.671499 C    1 RES 0.0000
   278 C278      18.491238    -1.717715    15.144501 C    1 RES 0.0000
   279 C279      18.491238    15.098285    -1.671499 C    1 RES 0.0000
   280 C280      18.491238    15.098285    15.144501 C    1 RES 0.0000
   281 C281       3.152526    -1.731557    -1.709039 C    1 RES 0.0000
   282 C282       3.152526    -1.731557    15.106961 C    1 RES 0.0000
   283 C283       3.152526    15.084443    -1.709039 C    1 RES 0.0000
   284 C284       3.152526    15.084443    15.106961 C    1 RES 0.0000
   285 C285      19.968526    -1.731557    -1.709039 C    1 RES 0.0000
   286 C286      19.968526    -1.731557    15.106961 C    1 RES 0.0000
   287 C287      19.968526    15.084443    -1.709039 C    1 RES 0.0000
   288 C288      19.968526    15.084443    15.106961 C    1 RES 0.0000
   289 C289       3.903654    -1.602674    -0.548098 C    1 RES 0.0000
   290 C290       3.903654    -1.602674    16.267902 C    1 RES 0.0000
   291 C291       3.903654    15.213326    -0.548098 C    1 RES 0.0000
   292 C292       3.903654    15.213326    16.267902 C    1 RES 0.0000
   293 C293       5.275414    -1.595840    -0.632110 C    1 RES 0.0000
   294 C294       5.275414    -1.595840    16.183890 C    1 RES 0.0000
   295 C295       5.275414    15.220160    -0.632110 C    1 RES 0.0000
   296 C296       5.275414    15.220160    16.183890 C    1 RES 0.0000
   297 C297       5.976060    -1.682227    -1.849290 C    1 RES 0.0000
   298 C298       5.976060    -1.682227    14.966710 C    1 RES 0.0000
   299 C299       5.976060    15.133773    -1.849290 C    1 RES 0.0000
   300 C300       5.976060    15.133773    14.966710 C    1 RES 0.0000
   301 C301       7.451928    -1.713585    -1.813738 C    1 RES 0.0000
   302 C302       7.451928    -1.713585    15.002262 C    1 RES 0.0000
   303 C303       7.451928    15.102415    -1.813738 C    1 RES 0.0000
   304 C304       7.451928    15.102415    15.002262 C    1 RES 0.0000
   305 C305       8.130081    -1.811079    -0.588108 C    1 RES 0.0000
   306 C306       8.130081    -1.811079    16.227892 C    1 RES 0.0000
   307 C307       8.130081    15.004921    -0.588108 C    1 RES 0.0000
   308 C308       8.130081    15.004921    16.227892 C    1 RES 0.0000
   309 C309       9.503912    -1.823218    -0.506504 C    1 RES 0.0000
   310 C310       9.503912    -1.823218    16.309496 C    1 RES 0.0000
   311 C311       9.503912    14.992782    -0.506504 C    1 RES 0.0000
   312 C312       9.503912    14.992782    16.309496 C    1 RES 0.0000
   313 C313      10.270083    -1.743293    -1.662958 C    1 RES 0.0000
   314 C314      10.270083    -1.743293    15.153042 C    1 RES 0.0000
   315 C315      10.270083    15.072707    -1.662958 C    1 RES 0.0000
   316 C316      10.270083    15.072707    15.153042 C    1 RES 0.0000
   317 C317      11.746785    -1.721330    -1.607813 C    1 RES 0.0000
   318 C318      11.746785    -1.721330    15.208187 C    1 RES 0.0000
   319 C319      11.746785    15.094670    -1.607813 C    1 RES 0.0000
   320 C320      11.746785    15.094670    15.208187 C    1 RES 0.0000
   321 C321       9.628456    -1.678397    -2.892311 C    1 RES 0.0000
   322 C322       9.628456    -1.678397    13.923689 C    1 RES 0.0000
   323 C323       9.628456    15.137603    -2.892311 C    1 RES 0.0000
   324 C324       9.628456    15.137603    13.923689 C    1 RES 0.0000
   325 C325       8.252011    -1.671537    -2.962445 C    1 RES 0.0000
   326 C326       8.252011    -1.671537    13.853555 C    1 RES 0.0000
   327 C327       8.252011    15.144463    -2.962445 C    1 RES 0.0000
   328 C328       8.252011    15.144463    13.853555 C    1 RES 0.0000
   329 C329       5.191580    -1.739477    -3.027787 C    1 RES 0.0000
   330 C330       5.191580    -1.739477    13.788213 C    1 RES 0.0000
   331 C331       5.191580    15.076523    -3.027787 C    1 RES 0.0000
   332 C332       5.191580    15.076523    13.788213 C    1 RES 0.0000
   333 C333       3.808445    -1.802512    -2.925101 C    1 RES 0.0000
   334 C334       3.808445    -1.802512    13.890899 C    1 RES 0.0000
   335 C335       3.808445    15.013488    -2.925101 C    1 RES 0.0000
   336 C336       3.808445    15.013488    13.890899 C    1 RES 0.0000
   337 C337      -1.699508     1.671145    -1.677827 C    1 RES 0.0000
   338 C338      -1.699508     1.671145    15.138173 C    1 RES 0.0000
   339 C339      -1.699508    18.487145    -1.677827 C    1 RES 0.0000
   340 C340      -1.699508    18.487145    15.138173 C    1 RES 0.0000
   341 C341      15.116492     1.671145    -1.677827 C    1 RES 0.0000
   342 C342      15.116492     1.671145    15.138173 C    1 RES 0.0000
   343 C343      15.116492    18.487145    -1.677827 C    1 RES 0.0000
   344 C344      15.116492    18.487145    15.138173 C    1 RES 0.0000
   345 C345      -1.670013     3.148076    -1.669245 C    1 RES 0.0000
   346 C346      -1.670013     3.148076    15.146755 C    1 RES 0.0000
   347 C347      -1.670013    19.964076    -1.669245 C    1 RES 0.0000
   348 C348      -1.670013    19.964076    15.146755 C    1 RES 0.0000
   349 C349      15.145987     3.148076    -1.669245 C    1 RES 0.0000
   350 C350      15.145987     3.148076    15.146755 C    1 RES 0.0000
   351 C351      15.145987    19.964076    -1.669245 C    1 RES 0.0000
   352 C352      15.145987    19.964076    15.146755 C    1 RES 0.0000
   353 C353      -2.834722     3.895393    -1.786159 C    1 RES 0.0000
   354 C354      -2.834722     3.895393    15.029841 C    1 RES 0.0000
   355 C355      13.981278     3.895393    -1.786159 C    1 RES 0.0000
   356 C356      13.981278     3.895393    15.029841 C    1 RES 0.0000
   357 C357      -2.757010     5.268014    -1.799840 C    1 RES 0.0000
   358 C358      -2.757010     5.268014    15.016160 C    1 RES 0.0000
   359 C359      14.058990     5.268014    -1.799840 C    1 RES 0.0000
   360 C360      14.058990     5.268014    15.016160 C    1 RES 0.0000
   361 C361      -1.541415     5.971827    -1.725519 C    1 RES 0.0000
   362 C362      -1.541415     5.971827    15.090481 C    1 RES 0.0000
   363 C363      15.274585     5.971827    -1.725519 C    1 RES 0.0000
   364 C364      15.274585     5.971827    15.090481 C    1 RES 0.0000
   365 C365      -1.579886     7.448747    -1.721453 C    1 RES 0.0000
   366 C366      -1.579886     7.448747    15.094547 C    1 RES 0.0000
   367 C367      15.236114     7.448747    -1.721453 C    1 RES 0.0000
   368 C368      15.236114     7.448747    15.094547 C    1 RES 0.0000
   369 C369      -2.803030     8.131879    -1.624686 C    1 RES 0.0000
   370 C370      -2.803030     8.131879    15.191314 C    1 RES 0.0000
   371 C371      14.012970     8.131879    -1.624686 C    1 RES 0.0000
   372 C372      14.012970     8.131879    15.191314 C    1 RES 0.0000
   373 C373      -2.876926     9.506977    -1.616319 C    1 RES 0.0000
   374 C374      -2.876926     9.506977    15.199681 C    1 RES 0.0000
   375 C375      13.939074     9.506977    -1.616319 C    1 RES 0.0000
   376 C376      13.939074     9.506977    15.199681 C    1 RES 0.0000
   377 C377      -1.717058    10.268222    -1.699930 C    1 RES 0.0000
   378 C378      -1.717058    10.268222    15.116070 C    1 RES 0.0000
   379 C379      15.098942    10.268222    -1.699930 C    1 RES 0.0000
   380 C380      15.098942    10.268222    15.116070 C    1 RES 0.0000
   381 C381      -1.748789    11.746798    -1.673486 C    1 RES 0.0000
   382 C382      -1.748789    11.746798    15.142514 C    1 RES 0.0000
   383 C383      15.067211    11.746798    -1.673486 C    1 RES 0.0000
   384 C384      15.067211    11.746798    15.142514 C    1 RES 0.0000
   385 C385      -0.491805     9.620571    -1.783222 C    1 RES 0.0000
   386 C386      -0.491805     9.620571    15.032778 C    1 RES 0.0000
   387 C387      16.324195     9.620571    -1.783222 C    1 RES 0.0000
   388 C388      16.324195     9.620571    15.032778 C    1 RES 0.0000
   389 C389      -0.428951     8.243813    -1.790801 C    1 RES 0.0000
   390 C390      -0.428951     8.243813    15.025199 C    1 RES 0.0000
   391 C391      16.387049     8.243813    -1.790801 C    1 RES 0.0000
   392 C392      16.387049     8.243813    15.025199 C    1 RES 0.0000
   393 C393      -0.361442     5.190910    -1.649520 C    1 RES 0.0000
   394 C394      -0.361442     5.190910    15.166480 C    1 RES 0.0000
   395 C395      16.454558     5.190910    -1.649520 C    1 RES 0.0000
   396 C396      16.454558     5.190910    15.166480 C    1 RES 0.0000
   397 C397      -0.456322     3.807661    -1.596643 C    1 RES 0.0000
   398 C398      -0.456322     3.807661    15.219357 C    1 RES 0.0000
   399 C399      16.359678     3.807661    -1.596643 C    1 RES 0.0000
   400 C400      16.359678     3.807661    15.219357 C    1 RES 0.0000
   401 C401      -1.654768    -1.727250     1.713632 C    1 RES 0.0000
   402 C402      -1.654768    -1.727250    18.529632 C    1 RES 0.0000
   403 C403      -1.654768    15.088750     1.713632 C    1 RES 0.0000
   404 C404      -1.654768    15.088750    18.529632 C    1 RES 0.0000
   405 C405      15.161232    -1.727250     1.713632 C    1 RES 0.0000
   406 C406      15.161232    -1.727250    18.529632 C    1 RES 0.0000
   407 C407      15.161232    15.088750     1.713632 C    1 RES 0.0000
   408 C408      15.161232    15.088750    18.529632 C    1 RES 0.0000
   409 C409      -1.659463    -1.686420     3.191562 C    1 RES 0.0000
   410 C410      -1.659463    -1.686420    20.007562 C    1 RES 0.0000
   411 C411      -1.659463    15.129580     3.191562 C    1 RES 0.0000
   412 C412      -1.659463    15.129580    20.007562 C    1 RES 0.0000
   413 C413      15.156537    -1.686420     3.191562 C    1 RES 0.0000
   414 C414      15.156537    -1.686420    20.007562 C    1 RES 0.0000
   415 C415      15.156537    15.129580     3.191562 C    1 RES 0.0000
   416 C416      15.156537    15.129580    20.007562 C    1 RES 0.0000
   417 C417      -1.796458    -2.842963     3.948619 C    1 RES 0.0000
   418 C418      -1.796458    13.973037     3.948619 C    1 RES 0.0000
   419 C419      15.019542    -2.842963     3.948619 C    1 RES 0.0000
   420 C420      15.019542    13.973037     3.948619 C    1 RES 0.0000
   421 C421      -1.821882    -2.753823     5.320149 C    1 RES 0.0000
   422 C422      -1.821882    14.062177     5.320149 C    1 RES 0.0000
   423 C423      14.994118    -2.753823     5.320149 C    1 RES 0.0000
   424 C424      14.994118    14.062177     5.320149 C    1 RES 0.0000
   425 C425      -1.742911    -1.533677     6.014923 C    1 RES 0.0000
   426 C426      -1.742911    15.282323     6.014923 C    1 RES 0.0000
   427 C427      15.073089    -1.533677     6.014923 C    1 RES 0.0000
   428 C428      15.073089    15.282323     6.014923 C    1 RES 0.0000
   429 C429      -1.748123    -1.561997     7.491441 C    1 RES 0.0000
   430 C430      -1.748123    15.254003     7.491441 C    1 RES 0.0000
   431 C431      15.067877    -1.561997     7.491441 C    1 RES 0.0000
   432 C432      15.067877    15.254003     7.491441 C    1 RES 0.0000
   433 C433      -1.655238    -2.781754     8.179744 C    1 RES 0.0000
   434 C434      -1.655238    14.034246     8.179744 C    1 RES 0.0000
   435 C435      15.160762    -2.781754     8.179744 C    1 RES 0.0000
   436 C436      15.160762    14.034246     8.179744 C    1 RES 0.0000
   437 C437      -1.652572    -2.850524     9.554490 C    1 RES 0.0000
   438 C438      -1.652572    13.965476     9.554490 C    1 RES 0.0000
   439 C439      15.163428    -2.850524     9.554490 C    1 RES 0.0000
   440 C440      15.163428    13.965476     9.554490 C    1 RES 0.0000
   441 C441      -1.742137    -1.687685    10.309024 C    1 RES 0.0000
   442 C442      -1.742137    15.128315    10.309024 C    1 RES 0.0000
   443 C443      15.073863    -1.687685    10.309024 C    1 RES 0.0000
   444 C444      15.073863    15.128315    10.309024 C    1 RES 0.0000
   445 C445      -1.728627    -1.718625    11.786213 C    1 RES 0.0000
   446 C446      -1.728627    15.097375    11.786213 C    1 RES 0.0000
   447 C447      15.087373    -1.718625    11.786213 C    1 RES 0.0000
   448 C448      15.087373    15.097375    11.786213 C    1 RES 0.0000
   449 C449      -1.818543    -0.464439     9.658102 C    1 RES 0.0000
   450 C450      -1.818543    16.351561     9.658102 C    1 RES 0.0000
   451 C451      14.997457    -0.464439     9.658102 C    1 RES 0.0000
   452 C452      14.997457    16.351561     9.658102 C    1 RES 0.0000
   453 C453      -1.814579    -0.407585     8.281154 C    1 RES 0.0000
   454 C454      -1.814579    16.408415     8.281154 C    1 RES 0.0000
   455 C455      15.001421    -0.407585     8.281154 C    1 RES 0.0000
   456 C456      15.001421    16.408415     8.281154 C    1 RES 0.0000
   457 C457      -1.651260    -0.361184     5.225092 C    1 RES 0.0000
   458 C458      -1.651260    16.454816     5.225092 C    1 RES 0.0000
   459 C459      15.164740    -0.361184     5.225092 C    1 RES 0.0000
   460 C460      15.164740    16.454816     5.225092 C    1 RES 0.0000
   461 C461      -1.584199    -0.467392     3.843160 C    1 RES 0.0000
   462 C462      -1.584199    16.348608     3.843160 C    1 RES 0.0000
   463 C463      15.231801    -0.467392     3.843160 C    1 RES 0.0000
   464 C464      15.231801    16.348608     3.843160 C    1 RES 0.0000
   465 N465      -1.095627     8.438715     5.737981 N    1 RES 0.0000
   466 N466      15.720373     8.438715     5.737981 N    1 RES 0.0000
   467 N467      11.106152    -1.099790     8.384236 N    1 RES 0.0000
   468 N468      11.106152    15.716210     8.384236 N    1 RES 0.0000
   469 N469       8.389432    11.109976    -1.074790 N    1 RES 0.0000
   470 N470       8.389432    11.109976    15.741210 N    1 RES 0.0000
   471 N471       5.619555    -1.696047    12.431317 N    1 RES 0.0000
   472 N472       5.619555    15.119953    12.431317 N    1 RES 0.0000
   473 N473       0.995736     5.624202    -1.642993 N    1 RES 0.0000
   474 N474       0.995736     5.624202    15.173007 N    1 RES 0.0000
   475 N475      17.811736     5.624202    -1.642993 N    1 RES 0.0000
   476 N476      17.811736     5.624202    15.173007 N    1 RES 0.0000
   477 N477      -1.647168     0.998293     5.651452 N    1 RES 0.0000
   478 N478      -1.647168    17.814293     5.651452 N    1 RES 0.0000
   479 N479      15.168832     0.998293     5.651452 N    1 RES 0.0000
   480 N480      15.168832    17.814293     5.651452 N    1 RES 0.0000
   481 O481       8.401615     8.398380     8.460766 O    1 RES 0.0000
   482 O482      11.215886     8.880509     9.450240 O    1 RES 0.0000
   483 O483      11.188725     7.886434     7.451592 O    1 RES 0.0000
   484 O484       5.634744     8.857069     7.474966 O    1 RES 0.0000
   485 O485       5.603954     7.976452     9.526712 O    1 RES 0.0000
   486 O486       7.403664    11.223381     7.941370 O    1 RES 0.0000
   487 O487       9.414600    11.169598     8.910607 O    1 RES 0.0000
   488 O488       9.376946     5.623780     7.992482 O    1 RES 0.0000
   489 O489       7.332131     5.605333     8.886945 O    1 RES 0.0000
   490 O490       7.999675     7.350190    11.259375 O    1 RES 0.0000
   491 O491       8.866107     9.404834    11.205775 O    1 RES 0.0000
   492 O492       7.910221     9.386886     5.662071 O    1 RES 0.0000
   493 O493       8.898876     7.383577     5.638224 O    1 RES 0.0000
   494 O494      -1.703451    -1.702816    -1.637564 O    1 RES 0.0000
   495 O495      -1.703451    -1.702816    15.178436 O    1 RES 0.0000
   496 O496      -1.703451    15.113184    -1.637564 O    1 RES 0.0000
   497 O497      -1.703451    15.113184    15.178436 O    1 RES 0.0000
   498 O498      15.112549    -1.702816    -1.637564 O    1 RES 0.0000
   499 O499      15.112549    -1.702816    15.178436 O    1 RES 0.0000
   500 O500      15.112549    15.113184    -1.637564 O    1 RES 0.0000
   501 O501      15.112549    15.113184    15.178436 O    1 RES 0.0000
   502 O502       1.117910    -1.212364    -0.663509 O    1 RES 0.0000
   503 O503       1.117910    -1.212364    16.152491 O    1 RES 0.0000
   504 O504       1.117910    15.603636    -0.663509 O    1 RES 0.0000
   505 O505       1.117910    15.603636    16.152491 O    1 RES 0.0000
   506 O506      17.933910    -1.212364    -0.663509 O    1 RES 0.0000
   507 O507      17.933910    -1.212364    16.152491 O    1 RES 0.0000
   508 O508      17.933910    15.603636    -0.663509 O    1 RES 0.0000
   509 O509      17.933910    15.603636    16.152491 O    1 RES 0.0000
   510 O510       1.073662    -2.199076    -2.665322 O    1 RES 0.0000
   511 O511       1.073662    -2.199076    14.150678 O    1 RES 0.0000
   512 O512       1.073662    14.616924    -2.665322 O    1 RES 0.0000
   513 O513       1.073662    14.616924    14.150678 O    1 RES 0.0000
   514 O514      17.889662    -2.199076    -2.665322 O    1 RES 0.0000
   515 O515      17.889662    -2.199076    14.150678 O    1 RES 0.0000
   516 O516      17.889662    14.616924    -2.665322 O    1 RES 0.0000
   517 O517      17.889662    14.616924    14.150678 O    1 RES 0.0000
   518 O518      12.342720    -1.261395    -2.616642 O    1 RES 0.0000
   519 O519      12.342720    -1.261395    14.199358 O    1 RES 0.0000
   520 O520      12.342720    15.554605    -2.616642 O    1 RES 0.0000
   521 O521      12.342720    15.554605    14.199358 O    1 RES 0.0000
   522 O522      12.311009    -2.152975    -0.569682 O    1 RES 0.0000
   523 O523      12.311009    -2.152975    16.246318 O    1 RES 0.0000
   524 O524      12.311009    14.663025    -0.569682 O    1 RES 0.0000
   525 O525      12.311009    14.663025    16.246318 O    1 RES 0.0000
   526 O526      -2.709706     1.111970    -2.176970 O    1 RES 0.0000
   527 O527      -2.709706     1.111970    14.639030 O    1 RES 0.0000
   528 O528      -2.709706    17.927970    -2.176970 O    1 RES 0.0000
   529 O529      -2.709706    17.927970    14.639030 O    1 RES 0.0000
   530 O530      14.106294     1.111970    -2.176970 O    1 RES 0.0000
   531 O531      14.106294     1.111970    14.639030 O    1 RES 0.0000
   532 O532      14.106294    17.927970    -2.176970 O    1 RES 0.0000
   533 O533      14.106294    17.927970    14.639030 O    1 RES 0.0000
   534 O534      -0.700902     1.072794    -1.203292 O    1 RES 0.0000
   535 O535      -0.700902     1.072794    15.612708 O    1 RES 0.0000
   536 O536      -0.700902    17.888794    -1.203292 O    1 RES 0.0000
   537 O537      -0.700902    17.888794    15.612708 O    1 RES 0.0000
   538 O538      16.115098     1.072794    -1.203292 O    1 RES 0.0000
   539 O539      16.115098     1.072794    15.612708 O    1 RES 0.0000
   540 O540      16.115098    17.888794    -1.203292 O    1 RES 0.0000
   541 O541      16.115098    17.888794    15.612708 O    1 RES 0.0000
   542 O542      -0.724848    12.343428    -2.098671 O    1 RES 0.0000
   543 O543      -0.724848    12.343428    14.717329 O    1 RES 0.0000
   544 O544      16.091152    12.343428    -2.098671 O    1 RES 0.0000
   545 O545      16.091152    12.343428    14.717329 O    1 RES 0.0000
   546 O546      -2.775750    12.313302    -1.220213 O    1 RES 0.0000
   547 O547      -2.775750    12.313302    15.595787 O    1 RES 0.0000
   548 O548      14.040250    12.313302    -1.220213 O    1 RES 0.0000
   549 O549      14.040250    12.313302    15.595787 O    1 RES 0.0000
   550 O550      -2.105956    -2.758417     1.150200 O    1 RES 0.0000
   551 O551      -2.105956    -2.758417    17.966200 O    1 RES 0.0000
   552 O552      -2.105956    14.057583     1.150200 O    1 RES 0.0000
   553 O553      -2.105956    14.057583    17.966200 O    1 RES 0.0000
   554 O554      14.710044    -2.758417     1.150200 O    1 RES 0.0000
   555 O555      14.710044    -2.758417    17.966200 O    1 RES 0.0000
   556 O556      14.710044    14.057583     1.150200 O    1 RES 0.0000
   557 O557      14.710044    14.057583    17.966200 O    1 RES 0.0000
   558 O558      -1.225586    -0.708539     1.113087 O    1 RES 0.0000
   559 O559      -1.225586    -0.708539    17.929087 O    1 RES 0.0000
   560 O560      -1.225586    16.107461     1.113087 O    1 RES 0.0000
   561 O561      -1.225586    16.107461    17.929087 O    1 RES 0.0000
   562 O562      15.590414    -0.708539     1.113087 O    1 RES 0.0000
   563 O563      15.590414    -0.708539    17.929087 O    1 RES 0.0000
   564 O564      15.590414    16.107461     1.113087 O    1 RES 0.0000
   565 O565      15.590414    16.107461    17.929087 O    1 RES 0.0000
   566 O566      -2.219717    -0.720949    12.376171 O    1 RES 0.0000
   567 O567      -2.219717    16.095051    12.376171 O    1 RES 0.0000
   568 O568      14.596283    -0.720949    12.376171 O    1 RES 0.0000
   569 O569      14.596283    16.095051    12.376171 O    1 RES 0.0000
   570 O570      -1.222771    -2.720296    12.351397 O    1 RES 0.0000
   571 O571      -1.222771    14.095704    12.351397 O    1 RES 0.0000
   572 O572      15.593229    -2.720296    12.351397 O    1 RES 0.0000
   573 O573      15.593229    14.095704    12.351397 O    1 RES 0.0000
@<TRIPOS>BOND
     1      1    481 1
     2      1    483 1
     3      1    488 1
     4      1    493 1
     5      2    481 1
     6      2    484 1
     7      2    486 1
     8      2    492 1
     9      3    481 1
    10      3    485 1
    11      3    489 1
    12      3    490 1
    13      4    481 1
    14      4    482 1
    15      4    487 1
    16      4    491 1
    17      5    494 1
    18      5    510 1
    19      6    495 1
    20      6    511 1
    21      6    570 1
    22      7    496 1
    23      7    512 1
    24      7    542 1
    25      8    497 1
    26      8    513 1
    27      8    543 1
    28      8    571 1
    29      9    498 1
    30      9    514 1
    31     10    499 1
    32     10    515 1
    33     10    572 1
    34     11    500 1
    35     11    516 1
    36     11    544 1
    37     12    501 1
    38     12    517 1
    39     12    545 1
    40     12    573 1
    41     13    494 1
    42     13    526 1
    43     14    495 1
    44     14    527 1
    45     14    566 1
    46     15    496 1
    47     15    528 1
    48     16    497 1
    49     16    529 1
    50     16    567 1
    51     17    498 1
    52     17    518 1
    53     17    530 1
    54     18    499 1
    55     18    519 1
    56     18    531 1
    57     18    568 1
    58     19    500 1
    59     19    520 1
    60     19    532 1
    61     20    501 1
    62     20    521 1
    63     20    533 1
    64     20    569 1
    65     21    494 1
    66     21    550 1
    67     22    495 1
    68     22    551 1
    69     23    496 1
    70     23    546 1
    71     23    552 1
    72     24    497 1
    73     24    547 1
    74     24    553 1
    75     25    498 1
    76     25    522 1
    77     25    554 1
    78     26    499 1
    79     26    523 1
    80     26    555 1
    81     27    500 1
    82     27    524 1
    83     27    548 1
    84     27    556 1
    85     28    501 1
    86     28    525 1
    87     28    549 1
    88     28    557 1
    89     29    494 1
    90     29    502 1
    91     29    534 1
    92     29    558 1
    93     30    495 1
    94     30    503 1
    95     30    535 1
    96     30    559 1
    97     31    496 1
    98     31    504 1
    99     31    536 1
   100     31    560 1
   101     32    497 1
   102     32    505 1
   103     32    537 1
   104     32    561 1
   105     33    498 1
   106     33    506 1
   107     33    538 1
   108     33    562 1
   109     34    499 1
   110     34    507 1
   111     34    539 1
   112     34    563 1
   113     35    500 1
   114     35    508 1
   115     35    540 1
   116     35    564 1
   117     36    501 1
   118     36    509 1
   119     36    541 1
   120     36    565 1
   121     37    198 1
   122     38    199 1
   123     39    200 1
   124     40    201 1
   125     41    206 1
   126     42    207 1
   127     43    208 1
   128     44    209 1
   129     45    213 1
   130     46    214 1
   131     47    215 1
   132     48    216 1
   133     49    465 1
   134     50    466 1
   135     51    465 1
   136     52    466 1
   137     53    219 1
   138     54    220 1
   139     55    224 1
   140     56    225 1
   141     57    226 1
   142     58    227 1
   143     59    232 1
   144     60    233 1
   145     61    234 1
   146     62    235 1
   147     63    239 1
   148     64    240 1
   149     65    241 1
   150     66    242 1
   151     67    467 1
   152     68    468 1
   153     69    467 1
   154     70    468 1
   155     71    245 1
   156     72    246 1
   157     73    250 1
   158     74    251 1
   159     75    252 1
   160     76    253 1
   161     77    258 1
   162     78    259 1
   163     79    260 1
   164     80    261 1
   165     81    265 1
   166     82    266 1
   167     83    267 1
   168     84    268 1
   169     85    469 1
   170     86    470 1
   171     87    469 1
   172     88    470 1
   173     89    271 1
   174     90    272 1
   175     91    289 1
   176     92    290 1
   177     93    291 1
   178     94    292 1
   179     99    293 1
   180    100    294 1
   181    101    295 1
   182    102    296 1
   183    103    305 1
   184    104    306 1
   185    105    307 1
   186    106    308 1
   187    107    309 1
   188    108    310 1
   189    109    311 1
   190    110    312 1
   191    111    322 1
   192    112    324 1
   193    113    326 1
   194    114    328 1
   195    115    471 1
   196    116    472 1
   197    117    471 1
   198    118    472 1
   199    119    334 1
   200    120    336 1
   201    123    355 1
   202    124    356 1
   203    127    357 1
   204    128    358 1
   205    129    359 1
   206    130    360 1
   207    131    371 1
   208    132    372 1
   209    133    375 1
   210    134    376 1
   211    135    385 1
   212    136    386 1
   213    137    387 1
   214    138    388 1
   215    139    389 1
   216    140    390 1
   217    141    391 1
   218    142    392 1
   219    143    473 1
   220    144    474 1
   221    145    475 1
   222    146    476 1
   223    147    473 1
   224    148    474 1
   225    149    475 1
   226    150    476 1
   227    151    397 1
   228    152    398 1
   229    155    399 1
   230    156    400 1
   231    159    418 1
   232    161    420 1
   233    163    421 1
   234    164    422 1
   235    165    423 1
   236    166    424 1
   237    167    434 1
   238    168    436 1
   239    169    438 1
   240    170    440 1
   241    171    449 1
   242    172    450 1
   243    173    451 1
   244    174    452 1
   245    175    453 1
   246    176    454 1
   247    177    455 1
   248    178    456 1
   249    179    477 1
   250    180    478 1
   251    181    479 1
   252    182    480 1
   253    183    477 1
   254    184    478 1
   255    185    479 1
   256    186    480 1
   257    187    461 1
   258    189    462 1
   259    191    463 1
   260    193    464 1
   261    195    197 1
   262    195    482 1
   263    195    483 1
   264    196    198 1
   265    196    219 1
   266    197    199 1
   267    197    220 1
   268    198    200 1
   269    199    201 1
   270    200    202 1
   271    201    203 1
   272    202    204 1
   273    202    217 1
   274    203    205 1
   275    203    218 1
   276    204    206 1
   277    204    215 1
   278    205    207 1
   279    205    216 1
   280    206    208 1
   281    207    209 1
   282    208    210 1
   283    209    211 1
   284    210    212 1
   285    210    213 1
   286    211    214 1
   287    212    484 1
   288    212    485 1
   289    213    215 1
   290    214    216 1
   291    217    219 1
   292    217    465 1
   293    218    220 1
   294    218    466 1
   295    221    223 1
   296    221    486 1
   297    221    487 1
   298    222    224 1
   299    222    245 1
   300    223    225 1
   301    223    246 1
   302    224    226 1
   303    225    227 1
   304    226    228 1
   305    227    229 1
   306    228    230 1
   307    228    243 1
   308    229    231 1
   309    229    244 1
   310    230    232 1
   311    230    241 1
   312    231    233 1
   313    231    242 1
   314    232    234 1
   315    233    235 1
   316    234    236 1
   317    235    237 1
   318    236    238 1
   319    236    239 1
   320    237    240 1
   321    238    488 1
   322    238    489 1
   323    239    241 1
   324    240    242 1
   325    243    245 1
   326    243    467 1
   327    244    246 1
   328    244    468 1
   329    247    249 1
   330    247    490 1
   331    247    491 1
   332    248    250 1
   333    248    271 1
   334    249    251 1
   335    249    272 1
   336    250    252 1
   337    251    253 1
   338    252    254 1
   339    253    255 1
   340    254    256 1
   341    254    269 1
   342    255    257 1
   343    255    270 1
   344    256    258 1
   345    256    267 1
   346    257    259 1
   347    257    268 1
   348    258    260 1
   349    259    261 1
   350    260    262 1
   351    261    263 1
   352    262    264 1
   353    262    265 1
   354    263    266 1
   355    264    492 1
   356    264    493 1
   357    265    267 1
   358    266    268 1
   359    269    271 1
   360    269    469 1
   361    270    272 1
   362    270    470 1
   363    273    281 1
   364    273    502 1
   365    273    510 1
   366    274    282 1
   367    274    503 1
   368    274    511 1
   369    275    283 1
   370    275    504 1
   371    275    512 1
   372    276    284 1
   373    276    505 1
   374    276    513 1
   375    277    285 1
   376    277    506 1
   377    277    514 1
   378    278    286 1
   379    278    507 1
   380    278    515 1
   381    279    287 1
   382    279    508 1
   383    279    516 1
   384    280    288 1
   385    280    509 1
   386    280    517 1
   387    281    289 1
   388    281    333 1
   389    282    290 1
   390    282    334 1
   391    283    291 1
   392    283    335 1
   393    284    292 1
   394    284    336 1
   395    289    293 1
   396    290    294 1
   397    291    295 1
   398    292    296 1
   399    293    297 1
   400    294    298 1
   401    295    299 1
   402    296    300 1
   403    297    301 1
   404    297    329 1
   405    298    302 1
   406    298    330 1
   407    299    303 1
   408    299    331 1
   409    300    304 1
   410    300    332 1
   411    301    305 1
   412    301    325 1
   413    302    306 1
   414    302    326 1
   415    303    307 1
   416    303    327 1
   417    304    308 1
   418    304    328 1
   419    305    309 1
   420    306    310 1
   421    307    311 1
   422    308    312 1
   423    309    313 1
   424    310    314 1
   425    311    315 1
   426    312    316 1
   427    313    317 1
   428    313    321 1
   429    314    318 1
   430    314    322 1
   431    315    319 1
   432    315    323 1
   433    316    320 1
   434    316    324 1
   435    317    518 1
   436    317    522 1
   437    318    519 1
   438    318    523 1
   439    319    520 1
   440    319    524 1
   441    320    521 1
   442    320    525 1
   443    321    325 1
   444    322    326 1
   445    323    327 1
   446    324    328 1
   447    329    333 1
   448    330    334 1
   449    330    471 1
   450    331    335 1
   451    332    336 1
   452    332    472 1
   453    337    345 1
   454    337    526 1
   455    337    534 1
   456    338    346 1
   457    338    527 1
   458    338    535 1
   459    339    347 1
   460    339    528 1
   461    339    536 1
   462    340    348 1
   463    340    529 1
   464    340    537 1
   465    341    349 1
   466    341    530 1
   467    341    538 1
   468    342    350 1
   469    342    531 1
   470    342    539 1
   471    343    351 1
   472    343    532 1
   473    343    540 1
   474    344    352 1
   475    344    533 1
   476    344    541 1
   477    345    353 1
   478    345    397 1
   479    346    354 1
   480    346    398 1
   481    349    355 1
   482    349    399 1
   483    350    356 1
   484    350    400 1
   485    353    357 1
   486    354    358 1
   487    355    359 1
   488    356    360 1
   489    357    361 1
   490    358    362 1
   491    359    363 1
   492    360    364 1
   493    361    365 1
   494    361    393 1
   495    362    366 1
   496    362    394 1
   497    363    367 1
   498    363    395 1
   499    364    368 1
   500    364    396 1
   501    365    369 1
   502    365    389 1
   503    366    370 1
   504    366    390 1
   505    367    371 1
   506    367    391 1
   507    368    372 1
   508    368    392 1
   509    369    373 1
   510    370    374 1
   511    371    375 1
   512    372    376 1
   513    373    377 1
   514    374    378 1
   515    375    379 1
   516    376    380 1
   517    377    381 1
   518    377    385 1
   519    378    382 1
   520    378    386 1
   521    379    383 1
   522    379    387 1
   523    380    384 1
   524    380    388 1
   525    381    542 1
   526    381    546 1
   527    382    543 1
   528    382    547 1
   529    383    544 1
   530    383    548 1
   531    384    545 1
   532    384    549 1
   533    385    389 1
   534    386    390 1
   535    387    391 1
   536    388    392 1
   537    393    397 1
   538    393    473 1
   539    394    398 1
   540    394    474 1
   541    395    399 1
   542    395    475 1
   543    396    400 1
   544    396    476 1
   545    401    409 1
   546    401    550 1
   547    401    558 1
   548    402    410 1
   549    402    551 1
   550    402    559 1
   551    403    411 1
   552    403    552 1
   553    403    560 1
   554    404    412 1
   555    404    553 1
   556    404    561 1
   557    405    413 1
   558    405    554 1
   559    405    562 1
   560    406    414 1
   561    406    555 1
   562    406    563 1
   563    407    415 1
   564    407    556 1
   565    407    564 1
   566    408    416 1
   567    408    557 1
   568    408    565 1
   569    409    417 1
   570    409    461 1
   571    411    418 1
   572    411    462 1
   573    413    419 1
   574    413    463 1
   575    415    420 1
   576    415    464 1
   577    417    421 1
   578    418    422 1
   579    419    423 1
   580    420    424 1
   581    421    425 1
   582    422    426 1
   583    423    427 1
   584    424    428 1
   585    425    429 1
   586    425    457 1
   587    426    430 1
   588    426    458 1
   589    427    431 1
   590    427    459 1
   591    428    432 1
   592    428    460 1
   593    429    433 1
   594    429    453 1
   595    430    434 1
   596    430    454 1
   597    431    435 1
   598    431    455 1
   599    432    436 1
   600    432    456 1
   601    433    437 1
   602    434    438 1
   603    435    439 1
   604    436    440 1
   605    437    441 1
   606    438    442 1
   607    439    443 1
   608    440    444 1
   609    441    445 1
   610    441    449 1
   611    442    446 1
   612    442    450 1
   613    443    447 1
   614    443    451 1
   615    444    448 1
   616    444    452 1
   617    445    566 1
   618    445    570 1
   619    446    567 1
   620    446    571 1
   621    447    568 1
   622    447    572 1
   623    448    569 1
   624    448    573 1
   625    449    453 1
   626    450    454 1
   627    451    455 1
   628    452    456 1
   629    457    461 1
   630    457    477 1
   631    458    462 1
   632    458    478 1
   633    459    463 1
   634    459    479 1
   635    460    464 1
   636    460    480 1
