nh2_bpdc_cu2_paddlewheel_pillared_sql_bipy
AtomForge visual export

184204  0  0  0  0            999 V2000
    0.0695   -0.0104    5.4218 Cu  0  0  0  0  0  0  0  0  0  0  0  0
    0.0695   14.8826    5.4218 Cu  0  0  0  0  0  0  0  0  0  0  0  0
   14.9625   -0.0104    5.4218 Cu  0  0  0  0  0  0  0  0  0  0  0  0
   14.9625   14.8826    5.4218 Cu  0  0  0  0  0  0  0  0  0  0  0  0
    0.0273   -0.0006    8.3721 Cu  0  0  0  0  0  0  0  0  0  0  0  0
    0.0273   14.8924    8.3721 Cu  0  0  0  0  0  0  0  0  0  0  0  0
   14.9203   -0.0006    8.3721 Cu  0  0  0  0  0  0  0  0  0  0  0  0
   14.9203   14.8924    8.3721 Cu  0  0  0  0  0  0  0  0  0  0  0  0
   10.5950    2.9967    7.4735 H   0  0  0  0  0  0  0  0  0  0  0  0
   10.5950   17.8896    7.4735 H   0  0  0  0  0  0  0  0  0  0  0  0
   12.0408    2.1109    7.3944 H   0  0  0  0  0  0  0  0  0  0  0  0
   12.0408   17.0039    7.3944 H   0  0  0  0  0  0  0  0  0  0  0  0
    6.6550    2.1227    6.8769 H   0  0  0  0  0  0  0  0  0  0  0  0
    6.6550   17.0157    6.8769 H   0  0  0  0  0  0  0  0  0  0  0  0
    4.2365    2.2508    6.8918 H   0  0  0  0  0  0  0  0  0  0  0  0
    4.2365   17.1438    6.8918 H   0  0  0  0  0  0  0  0  0  0  0  0
    8.5006    2.0163    7.1205 H   0  0  0  0  0  0  0  0  0  0  0  0
    8.5006   16.9092    7.1205 H   0  0  0  0  0  0  0  0  0  0  0  0
    3.9918   -2.0057    6.8924 H   0  0  0  0  0  0  0  0  0  0  0  0
    3.9918   12.8872    6.8924 H   0  0  0  0  0  0  0  0  0  0  0  0
    8.3606   -2.2604    6.7438 H   0  0  0  0  0  0  0  0  0  0  0  0
    8.3606   12.6326    6.7438 H   0  0  0  0  0  0  0  0  0  0  0  0
    6.4290   -2.1632    6.9116 H   0  0  0  0  0  0  0  0  0  0  0  0
    6.4290   12.7298    6.9116 H   0  0  0  0  0  0  0  0  0  0  0  0
   10.7911   -2.3057    6.6585 H   0  0  0  0  0  0  0  0  0  0  0  0
   10.7911   12.5872    6.6585 H   0  0  0  0  0  0  0  0  0  0  0  0
   -2.9726   10.5417    7.4744 H   0  0  0  0  0  0  0  0  0  0  0  0
   11.9204   10.5417    7.4744 H   0  0  0  0  0  0  0  0  0  0  0  0
   -2.0953   11.9907    7.3998 H   0  0  0  0  0  0  0  0  0  0  0  0
   12.7977   11.9907    7.3998 H   0  0  0  0  0  0  0  0  0  0  0  0
   -2.0886    6.6091    6.8350 H   0  0  0  0  0  0  0  0  0  0  0  0
   12.8044    6.6091    6.8350 H   0  0  0  0  0  0  0  0  0  0  0  0
   -2.2181    4.1958    6.7952 H   0  0  0  0  0  0  0  0  0  0  0  0
   12.6749    4.1958    6.7952 H   0  0  0  0  0  0  0  0  0  0  0  0
   -1.9889    8.4557    7.1026 H   0  0  0  0  0  0  0  0  0  0  0  0
   12.9040    8.4557    7.1026 H   0  0  0  0  0  0  0  0  0  0  0  0
    2.0375    3.9425    6.9007 H   0  0  0  0  0  0  0  0  0  0  0  0
   16.9305    3.9425    6.9007 H   0  0  0  0  0  0  0  0  0  0  0  0
    2.2945    8.3146    6.7873 H   0  0  0  0  0  0  0  0  0  0  0  0
   17.1875    8.3146    6.7873 H   0  0  0  0  0  0  0  0  0  0  0  0
    2.1948    6.3839    6.9351 H   0  0  0  0  0  0  0  0  0  0  0  0
   17.0877    6.3839    6.9351 H   0  0  0  0  0  0  0  0  0  0  0  0
    2.3417   10.7544    6.7630 H   0  0  0  0  0  0  0  0  0  0  0  0
   17.2347   10.7544    6.7630 H   0  0  0  0  0  0  0  0  0  0  0  0
    6.7605   -0.0328    6.9047 C   0  0  0  0  0  0  0  0  0  0  0  0
    6.7605   14.8602    6.9047 C   0  0  0  0  0  0  0  0  0  0  0  0
    6.1027    1.1999    6.8965 C   0  0  0  0  0  0  0  0  0  0  0  0
    6.1027   16.0929    6.8965 C   0  0  0  0  0  0  0  0  0  0  0  0
    4.7277    1.2881    6.9077 C   0  0  0  0  0  0  0  0  0  0  0  0
    4.7277   16.1811    6.9077 C   0  0  0  0  0  0  0  0  0  0  0  0
    3.9808    0.1263    6.9186 C   0  0  0  0  0  0  0  0  0  0  0  0
    3.9808   15.0192    6.9186 C   0  0  0  0  0  0  0  0  0  0  0  0
    4.5991   -1.1125    6.9087 C   0  0  0  0  0  0  0  0  0  0  0  0
    4.5991   13.7804    6.9087 C   0  0  0  0  0  0  0  0  0  0  0  0
    5.9751   -1.1867    6.9080 C   0  0  0  0  0  0  0  0  0  0  0  0
    5.9751   13.7063    6.9080 C   0  0  0  0  0  0  0  0  0  0  0  0
   10.9990   -0.1981    6.8526 C   0  0  0  0  0  0  0  0  0  0  0  0
   10.9990   14.6948    6.8526 C   0  0  0  0  0  0  0  0  0  0  0  0
   10.3631    1.0351    7.0049 C   0  0  0  0  0  0  0  0  0  0  0  0
   10.3631   15.9281    7.0049 C   0  0  0  0  0  0  0  0  0  0  0  0
    8.9770    1.0560    7.0117 C   0  0  0  0  0  0  0  0  0  0  0  0
    8.9770   15.9489    7.0117 C   0  0  0  0  0  0  0  0  0  0  0  0
    8.2249   -0.1088    6.9028 C   0  0  0  0  0  0  0  0  0  0  0  0
    8.2249   14.7841    6.9028 C   0  0  0  0  0  0  0  0  0  0  0  0
    8.8964   -1.3293    6.8006 C   0  0  0  0  0  0  0  0  0  0  0  0
    8.8964   13.5637    6.8006 C   0  0  0  0  0  0  0  0  0  0  0  0
   10.2736   -1.3671    6.7655 C   0  0  0  0  0  0  0  0  0  0  0  0
   10.2736   13.5259    6.7655 C   0  0  0  0  0  0  0  0  0  0  0  0
   -2.4024   -0.2060    6.8473 C   0  0  0  0  0  0  0  0  0  0  0  0
   -2.4024   14.6870    6.8473 C   0  0  0  0  0  0  0  0  0  0  0  0
   12.4906   -0.2060    6.8473 C   0  0  0  0  0  0  0  0  0  0  0  0
   12.4906   14.6870    6.8473 C   0  0  0  0  0  0  0  0  0  0  0  0
    2.4894    0.1699    6.9082 C   0  0  0  0  0  0  0  0  0  0  0  0
    2.4894   15.0629    6.9082 C   0  0  0  0  0  0  0  0  0  0  0  0
   17.3823    0.1699    6.9082 C   0  0  0  0  0  0  0  0  0  0  0  0
   17.3823   15.0629    6.9082 C   0  0  0  0  0  0  0  0  0  0  0  0
    0.0661    6.7141    6.8966 C   0  0  0  0  0  0  0  0  0  0  0  0
   14.9591    6.7141    6.8966 C   0  0  0  0  0  0  0  0  0  0  0  0
   -1.1658    6.0564    6.8607 C   0  0  0  0  0  0  0  0  0  0  0  0
   13.7271    6.0564    6.8607 C   0  0  0  0  0  0  0  0  0  0  0  0
   -1.2549    4.6812    6.8494 C   0  0  0  0  0  0  0  0  0  0  0  0
   13.6381    4.6812    6.8494 C   0  0  0  0  0  0  0  0  0  0  0  0
   -0.0933    3.9326    6.8744 C   0  0  0  0  0  0  0  0  0  0  0  0
   14.7997    3.9326    6.8744 C   0  0  0  0  0  0  0  0  0  0  0  0
    1.1451    4.5515    6.9002 C   0  0  0  0  0  0  0  0  0  0  0  0
   16.0381    4.5515    6.9002 C   0  0  0  0  0  0  0  0  0  0  0  0
    1.2196    5.9277    6.9114 C   0  0  0  0  0  0  0  0  0  0  0  0
   16.1126    5.9277    6.9114 C   0  0  0  0  0  0  0  0  0  0  0  0
    0.2316   10.9513    6.9054 C   0  0  0  0  0  0  0  0  0  0  0  0
   15.1245   10.9513    6.9054 C   0  0  0  0  0  0  0  0  0  0  0  0
   -1.0051   10.3155    7.0249 C   0  0  0  0  0  0  0  0  0  0  0  0
   13.8879   10.3155    7.0249 C   0  0  0  0  0  0  0  0  0  0  0  0
   -1.0251    8.9293    7.0147 C   0  0  0  0  0  0  0  0  0  0  0  0
   13.8678    8.9293    7.0147 C   0  0  0  0  0  0  0  0  0  0  0  0
    0.1415    8.1788    6.9125 C   0  0  0  0  0  0  0  0  0  0  0  0
   15.0345    8.1788    6.9125 C   0  0  0  0  0  0  0  0  0  0  0  0
    1.3640    8.8513    6.8388 C   0  0  0  0  0  0  0  0  0  0  0  0
   16.2569    8.8513    6.8388 C   0  0  0  0  0  0  0  0  0  0  0  0
    1.4022   10.2289    6.8291 C   0  0  0  0  0  0  0  0  0  0  0  0
   16.2952   10.2289    6.8291 C   0  0  0  0  0  0  0  0  0  0  0  0
    0.2466   -2.4508    6.8897 C   0  0  0  0  0  0  0  0  0  0  0  0
    0.2466   12.4421    6.8897 C   0  0  0  0  0  0  0  0  0  0  0  0
   15.1396   -2.4508    6.8897 C   0  0  0  0  0  0  0  0  0  0  0  0
   15.1396   12.4421    6.8897 C   0  0  0  0  0  0  0  0  0  0  0  0
   -0.1281    2.4408    6.8722 C   0  0  0  0  0  0  0  0  0  0  0  0
   -0.1281   17.3338    6.8722 C   0  0  0  0  0  0  0  0  0  0  0  0
   14.7648    2.4408    6.8722 C   0  0  0  0  0  0  0  0  0  0  0  0
   14.7648   17.3338    6.8722 C   0  0  0  0  0  0  0  0  0  0  0  0
    0.0004   -0.0024   -1.9857 C   0  0  0  0  0  0  0  0  0  0  0  0
    0.0004   -0.0024   11.8143 C   0  0  0  0  0  0  0  0  0  0  0  0
    0.0004   14.8905   -1.9857 C   0  0  0  0  0  0  0  0  0  0  0  0
    0.0004   14.8905   11.8143 C   0  0  0  0  0  0  0  0  0  0  0  0
   14.8934   -0.0024   -1.9857 C   0  0  0  0  0  0  0  0  0  0  0  0
   14.8934   -0.0024   11.8143 C   0  0  0  0  0  0  0  0  0  0  0  0
   14.8934   14.8905   -1.9857 C   0  0  0  0  0  0  0  0  0  0  0  0
   14.8934   14.8905   11.8143 C   0  0  0  0  0  0  0  0  0  0  0  0
    0.0109   -0.0046   -0.6247 C   0  0  0  0  0  0  0  0  0  0  0  0
    0.0109   -0.0046   13.1753 C   0  0  0  0  0  0  0  0  0  0  0  0
    0.0109   14.8884   -0.6247 C   0  0  0  0  0  0  0  0  0  0  0  0
    0.0109   14.8884   13.1753 C   0  0  0  0  0  0  0  0  0  0  0  0
   14.9039   -0.0046   -0.6247 C   0  0  0  0  0  0  0  0  0  0  0  0
   14.9039   -0.0046   13.1753 C   0  0  0  0  0  0  0  0  0  0  0  0
   14.9039   14.8884   -0.6247 C   0  0  0  0  0  0  0  0  0  0  0  0
   14.9039   14.8884   13.1753 C   0  0  0  0  0  0  0  0  0  0  0  0
    0.0116   -0.0042    0.5960 C   0  0  0  0  0  0  0  0  0  0  0  0
    0.0116   -0.0042   14.3960 C   0  0  0  0  0  0  0  0  0  0  0  0
    0.0116   14.8888    0.5960 C   0  0  0  0  0  0  0  0  0  0  0  0
    0.0116   14.8888   14.3960 C   0  0  0  0  0  0  0  0  0  0  0  0
   14.9045   -0.0042    0.5960 C   0  0  0  0  0  0  0  0  0  0  0  0
   14.9045   -0.0042   14.3960 C   0  0  0  0  0  0  0  0  0  0  0  0
   14.9045   14.8888    0.5960 C   0  0  0  0  0  0  0  0  0  0  0  0
   14.9045   14.8888   14.3960 C   0  0  0  0  0  0  0  0  0  0  0  0
    0.0137    0.0002    1.9574 C   0  0  0  0  0  0  0  0  0  0  0  0
    0.0137    0.0002   15.7574 C   0  0  0  0  0  0  0  0  0  0  0  0
    0.0137   14.8932    1.9574 C   0  0  0  0  0  0  0  0  0  0  0  0
    0.0137   14.8932   15.7574 C   0  0  0  0  0  0  0  0  0  0  0  0
   14.9067    0.0002    1.9574 C   0  0  0  0  0  0  0  0  0  0  0  0
   14.9067    0.0002   15.7574 C   0  0  0  0  0  0  0  0  0  0  0  0
   14.9067   14.8932    1.9574 C   0  0  0  0  0  0  0  0  0  0  0  0
   14.9067   14.8932   15.7574 C   0  0  0  0  0  0  0  0  0  0  0  0
   11.0853    2.2050    7.0859 N   0  0  0  0  0  0  0  0  0  0  0  0
   11.0853   17.0980    7.0859 N   0  0  0  0  0  0  0  0  0  0  0  0
   -2.1783   11.0335    7.0940 N   0  0  0  0  0  0  0  0  0  0  0  0
   12.7146   11.0335    7.0940 N   0  0  0  0  0  0  0  0  0  0  0  0
   -0.0168    0.0016   10.6634 N   0  0  0  0  0  0  0  0  0  0  0  0
   -0.0168   14.8946   10.6634 N   0  0  0  0  0  0  0  0  0  0  0  0
   14.8762    0.0016   10.6634 N   0  0  0  0  0  0  0  0  0  0  0  0
   14.8762   14.8946   10.6634 N   0  0  0  0  0  0  0  0  0  0  0  0
    0.0144    0.0070    3.1083 N   0  0  0  0  0  0  0  0  0  0  0  0
    0.0144   14.9000    3.1083 N   0  0  0  0  0  0  0  0  0  0  0  0
   14.9074    0.0070    3.1083 N   0  0  0  0  0  0  0  0  0  0  0  0
   14.9074   14.9000    3.1083 N   0  0  0  0  0  0  0  0  0  0  0  0
   -1.8975   -0.2386    7.9917 O   0  0  0  0  0  0  0  0  0  0  0  0
   -1.8975   14.6544    7.9917 O   0  0  0  0  0  0  0  0  0  0  0  0
   12.9955   -0.2386    7.9917 O   0  0  0  0  0  0  0  0  0  0  0  0
   12.9955   14.6544    7.9917 O   0  0  0  0  0  0  0  0  0  0  0  0
   -1.8670   -0.1407    5.7265 O   0  0  0  0  0  0  0  0  0  0  0  0
   -1.8670   14.7523    5.7265 O   0  0  0  0  0  0  0  0  0  0  0  0
   13.0260   -0.1407    5.7265 O   0  0  0  0  0  0  0  0  0  0  0  0
   13.0260   14.7523    5.7265 O   0  0  0  0  0  0  0  0  0  0  0  0
    1.9541    0.2456    8.0302 O   0  0  0  0  0  0  0  0  0  0  0  0
    1.9541   15.1386    8.0302 O   0  0  0  0  0  0  0  0  0  0  0  0
   16.8470    0.2456    8.0302 O   0  0  0  0  0  0  0  0  0  0  0  0
   16.8470   15.1386    8.0302 O   0  0  0  0  0  0  0  0  0  0  0  0
    1.9950    0.0991    5.7651 O   0  0  0  0  0  0  0  0  0  0  0  0
    1.9950   14.9920    5.7651 O   0  0  0  0  0  0  0  0  0  0  0  0
   16.8880    0.0991    5.7651 O   0  0  0  0  0  0  0  0  0  0  0  0
   16.8880   14.9920    5.7651 O   0  0  0  0  0  0  0  0  0  0  0  0
    0.2493   -1.9251    8.0222 O   0  0  0  0  0  0  0  0  0  0  0  0
    0.2493   12.9679    8.0222 O   0  0  0  0  0  0  0  0  0  0  0  0
   15.1423   -1.9251    8.0222 O   0  0  0  0  0  0  0  0  0  0  0  0
   15.1423   12.9679    8.0222 O   0  0  0  0  0  0  0  0  0  0  0  0
    0.2054   -1.9401    5.7547 O   0  0  0  0  0  0  0  0  0  0  0  0
    0.2054   12.9528    5.7547 O   0  0  0  0  0  0  0  0  0  0  0  0
   15.0983   -1.9401    5.7547 O   0  0  0  0  0  0  0  0  0  0  0  0
   15.0983   12.9528    5.7547 O   0  0  0  0  0  0  0  0  0  0  0  0
   -0.2389    1.9247    8.0033 O   0  0  0  0  0  0  0  0  0  0  0  0
   -0.2389   16.8177    8.0033 O   0  0  0  0  0  0  0  0  0  0  0  0
   14.6541    1.9247    8.0033 O   0  0  0  0  0  0  0  0  0  0  0  0
   14.6541   16.8177    8.0033 O   0  0  0  0  0  0  0  0  0  0  0  0
   -0.0271    1.9232    5.7435 O   0  0  0  0  0  0  0  0  0  0  0  0
   -0.0271   16.8162    5.7435 O   0  0  0  0  0  0  0  0  0  0  0  0
   14.8658    1.9232    5.7435 O   0  0  0  0  0  0  0  0  0  0  0  0
   14.8658   16.8162    5.7435 O   0  0  0  0  0  0  0  0  0  0  0  0
  1149  1  0  0  0  0
  1157  1  0  0  0  0
  1165  1  0  0  0  0
  1173  1  0  0  0  0
  1181  1  0  0  0  0
  2150  1  0  0  0  0
  2158  1  0  0  0  0
  2166  1  0  0  0  0
  2174  1  0  0  0  0
  2182  1  0  0  0  0
  3151  1  0  0  0  0
  3159  1  0  0  0  0
  3167  1  0  0  0  0
  3175  1  0  0  0  0
  3183  1  0  0  0  0
  4152  1  0  0  0  0
  4160  1  0  0  0  0
  4168  1  0  0  0  0
  4176  1  0  0  0  0
  4184  1  0  0  0  0
  5145  1  0  0  0  0
  5153  1  0  0  0  0
  5161  1  0  0  0  0
  5169  1  0  0  0  0
  5177  1  0  0  0  0
  6146  1  0  0  0  0
  6154  1  0  0  0  0
  6162  1  0  0  0  0
  6170  1  0  0  0  0
  6178  1  0  0  0  0
  7147  1  0  0  0  0
  7155  1  0  0  0  0
  7163  1  0  0  0  0
  7171  1  0  0  0  0
  7179  1  0  0  0  0
  8148  1  0  0  0  0
  8156  1  0  0  0  0
  8164  1  0  0  0  0
  8172  1  0  0  0  0
  8180  1  0  0  0  0
  9141  1  0  0  0  0
 10142  1  0  0  0  0
 11141  1  0  0  0  0
 12142  1  0  0  0  0
 13 47  1  0  0  0  0
 14 48  1  0  0  0  0
 15 49  1  0  0  0  0
 16 50  1  0  0  0  0
 17 61  1  0  0  0  0
 18 62  1  0  0  0  0
 19 53  1  0  0  0  0
 20 54  1  0  0  0  0
 21 65  1  0  0  0  0
 22 66  1  0  0  0  0
 23 55  1  0  0  0  0
 24 56  1  0  0  0  0
 25 67  1  0  0  0  0
 26 68  1  0  0  0  0
 27143  1  0  0  0  0
 28144  1  0  0  0  0
 29143  1  0  0  0  0
 30144  1  0  0  0  0
 31 79  1  0  0  0  0
 32 80  1  0  0  0  0
 33 81  1  0  0  0  0
 34 82  1  0  0  0  0
 35 93  1  0  0  0  0
 36 94  1  0  0  0  0
 37 85  1  0  0  0  0
 38 86  1  0  0  0  0
 39 97  1  0  0  0  0
 40 98  1  0  0  0  0
 41 87  1  0  0  0  0
 42 88  1  0  0  0  0
 43 99  1  0  0  0  0
 44100  1  0  0  0  0
 45 47  1  0  0  0  0
 45 55  1  0  0  0  0
 45 63  1  0  0  0  0
 46 48  1  0  0  0  0
 46 56  1  0  0  0  0
 46 64  1  0  0  0  0
 47 49  1  0  0  0  0
 48 50  1  0  0  0  0
 49 51  1  0  0  0  0
 50 52  1  0  0  0  0
 51 53  1  0  0  0  0
 51 73  1  0  0  0  0
 52 54  1  0  0  0  0
 52 74  1  0  0  0  0
 53 55  1  0  0  0  0
 54 56  1  0  0  0  0
 57 59  1  0  0  0  0
 57 67  1  0  0  0  0
 57 71  1  0  0  0  0
 58 60  1  0  0  0  0
 58 68  1  0  0  0  0
 58 72  1  0  0  0  0
 59 61  1  0  0  0  0
 59141  1  0  0  0  0
 60 62  1  0  0  0  0
 60142  1  0  0  0  0
 61 63  1  0  0  0  0
 62 64  1  0  0  0  0
 63 65  1  0  0  0  0
 64 66  1  0  0  0  0
 65 67  1  0  0  0  0
 66 68  1  0  0  0  0
 69153  1  0  0  0  0
 69157  1  0  0  0  0
 70154  1  0  0  0  0
 70158  1  0  0  0  0
 71155  1  0  0  0  0
 71159  1  0  0  0  0
 72156  1  0  0  0  0
 72160  1  0  0  0  0
 73161  1  0  0  0  0
 73165  1  0  0  0  0
 74162  1  0  0  0  0
 74166  1  0  0  0  0
 75163  1  0  0  0  0
 75167  1  0  0  0  0
 76164  1  0  0  0  0
 76168  1  0  0  0  0
 77 79  1  0  0  0  0
 77 87  1  0  0  0  0
 77 95  1  0  0  0  0
 78 80  1  0  0  0  0
 78 88  1  0  0  0  0
 78 96  1  0  0  0  0
 79 81  1  0  0  0  0
 80 82  1  0  0  0  0
 81 83  1  0  0  0  0
 82 84  1  0  0  0  0
 83 85  1  0  0  0  0
 83105  1  0  0  0  0
 84 86  1  0  0  0  0
 84107  1  0  0  0  0
 85 87  1  0  0  0  0
 86 88  1  0  0  0  0
 89 91  1  0  0  0  0
 89 99  1  0  0  0  0
 89102  1  0  0  0  0
 90 92  1  0  0  0  0
 90100  1  0  0  0  0
 90104  1  0  0  0  0
 91 93  1  0  0  0  0
 91143  1  0  0  0  0
 92 94  1  0  0  0  0
 92144  1  0  0  0  0
 93 95  1  0  0  0  0
 94 96  1  0  0  0  0
 95 97  1  0  0  0  0
 96 98  1  0  0  0  0
 97 99  1  0  0  0  0
 98100  1  0  0  0  0
101169  1  0  0  0  0
101173  1  0  0  0  0
102170  1  0  0  0  0
102174  1  0  0  0  0
103171  1  0  0  0  0
103175  1  0  0  0  0
104172  1  0  0  0  0
104176  1  0  0  0  0
105177  1  0  0  0  0
105181  1  0  0  0  0
106178  1  0  0  0  0
106182  1  0  0  0  0
107179  1  0  0  0  0
107183  1  0  0  0  0
108180  1  0  0  0  0
108184  1  0  0  0  0
109117  1  0  0  0  0
110118  1  0  0  0  0
110145  1  0  0  0  0
111119  1  0  0  0  0
112120  1  0  0  0  0
112146  1  0  0  0  0
113121  1  0  0  0  0
114122  1  0  0  0  0
114147  1  0  0  0  0
115123  1  0  0  0  0
116124  1  0  0  0  0
116148  1  0  0  0  0
117125  1  0  0  0  0
118126  1  0  0  0  0
119127  1  0  0  0  0
120128  1  0  0  0  0
121129  1  0  0  0  0
122130  1  0  0  0  0
123131  1  0  0  0  0
124132  1  0  0  0  0
125133  1  0  0  0  0
126134  1  0  0  0  0
127135  1  0  0  0  0
128136  1  0  0  0  0
129137  1  0  0  0  0
130138  1  0  0  0  0
131139  1  0  0  0  0
132140  1  0  0  0  0
133149  1  0  0  0  0
135150  1  0  0  0  0
137151  1  0  0  0  0
139152  1  0  0  0  0
M  END
$$$$
