nh2_bpdc_cu2_paddlewheel_pillared_sql_bipy
AtomForge visual export

352384  0  0  0  0            999 V2000
    0.0695   14.8826    5.4218 Cu  0  0  0  0  0  0  0  0  0  0  0  0
   29.8555   14.8826    5.4218 Cu  0  0  0  0  0  0  0  0  0  0  0  0
    0.0695   -0.0104    5.4218 Cu  0  0  0  0  0  0  0  0  0  0  0  0
    0.0695   29.7755    5.4218 Cu  0  0  0  0  0  0  0  0  0  0  0  0
   29.8555   -0.0104    5.4218 Cu  0  0  0  0  0  0  0  0  0  0  0  0
   29.8555   29.7755    5.4218 Cu  0  0  0  0  0  0  0  0  0  0  0  0
   14.9625   14.8826    5.4218 Cu  0  0  0  0  0  0  0  0  0  0  0  0
   14.9625   -0.0104    5.4218 Cu  0  0  0  0  0  0  0  0  0  0  0  0
   14.9625   29.7755    5.4218 Cu  0  0  0  0  0  0  0  0  0  0  0  0
    0.0273   14.8924    8.3721 Cu  0  0  0  0  0  0  0  0  0  0  0  0
   29.8133   14.8924    8.3721 Cu  0  0  0  0  0  0  0  0  0  0  0  0
    0.0273   -0.0006    8.3721 Cu  0  0  0  0  0  0  0  0  0  0  0  0
    0.0273   29.7853    8.3721 Cu  0  0  0  0  0  0  0  0  0  0  0  0
   29.8133   -0.0006    8.3721 Cu  0  0  0  0  0  0  0  0  0  0  0  0
   29.8133   29.7853    8.3721 Cu  0  0  0  0  0  0  0  0  0  0  0  0
   14.9203   14.8924    8.3721 Cu  0  0  0  0  0  0  0  0  0  0  0  0
   14.9203   -0.0006    8.3721 Cu  0  0  0  0  0  0  0  0  0  0  0  0
   14.9203   29.7853    8.3721 Cu  0  0  0  0  0  0  0  0  0  0  0  0
   10.5950    2.9967    7.4735 H   0  0  0  0  0  0  0  0  0  0  0  0
   10.5950   17.8896    7.4735 H   0  0  0  0  0  0  0  0  0  0  0  0
   25.4880    2.9967    7.4735 H   0  0  0  0  0  0  0  0  0  0  0  0
   25.4880   17.8896    7.4735 H   0  0  0  0  0  0  0  0  0  0  0  0
   12.0408    2.1109    7.3944 H   0  0  0  0  0  0  0  0  0  0  0  0
   12.0408   17.0039    7.3944 H   0  0  0  0  0  0  0  0  0  0  0  0
   26.9338    2.1109    7.3944 H   0  0  0  0  0  0  0  0  0  0  0  0
   26.9338   17.0039    7.3944 H   0  0  0  0  0  0  0  0  0  0  0  0
    6.6550    2.1227    6.8769 H   0  0  0  0  0  0  0  0  0  0  0  0
    6.6550   17.0157    6.8769 H   0  0  0  0  0  0  0  0  0  0  0  0
   21.5480    2.1227    6.8769 H   0  0  0  0  0  0  0  0  0  0  0  0
   21.5480   17.0157    6.8769 H   0  0  0  0  0  0  0  0  0  0  0  0
    4.2365    2.2508    6.8918 H   0  0  0  0  0  0  0  0  0  0  0  0
    4.2365   17.1438    6.8918 H   0  0  0  0  0  0  0  0  0  0  0  0
   19.1294    2.2508    6.8918 H   0  0  0  0  0  0  0  0  0  0  0  0
   19.1294   17.1438    6.8918 H   0  0  0  0  0  0  0  0  0  0  0  0
    8.5006    2.0163    7.1205 H   0  0  0  0  0  0  0  0  0  0  0  0
    8.5006   16.9092    7.1205 H   0  0  0  0  0  0  0  0  0  0  0  0
   23.3936    2.0163    7.1205 H   0  0  0  0  0  0  0  0  0  0  0  0
   23.3936   16.9092    7.1205 H   0  0  0  0  0  0  0  0  0  0  0  0
    3.9918   12.8872    6.8924 H   0  0  0  0  0  0  0  0  0  0  0  0
    3.9918   27.7802    6.8924 H   0  0  0  0  0  0  0  0  0  0  0  0
   18.8847   12.8872    6.8924 H   0  0  0  0  0  0  0  0  0  0  0  0
   18.8847   27.7802    6.8924 H   0  0  0  0  0  0  0  0  0  0  0  0
    8.3606   12.6326    6.7438 H   0  0  0  0  0  0  0  0  0  0  0  0
    8.3606   27.5256    6.7438 H   0  0  0  0  0  0  0  0  0  0  0  0
   23.2536   12.6326    6.7438 H   0  0  0  0  0  0  0  0  0  0  0  0
   23.2536   27.5256    6.7438 H   0  0  0  0  0  0  0  0  0  0  0  0
    6.4290   12.7298    6.9116 H   0  0  0  0  0  0  0  0  0  0  0  0
    6.4290   27.6228    6.9116 H   0  0  0  0  0  0  0  0  0  0  0  0
   21.3220   12.7298    6.9116 H   0  0  0  0  0  0  0  0  0  0  0  0
   21.3220   27.6228    6.9116 H   0  0  0  0  0  0  0  0  0  0  0  0
   10.7911   12.5872    6.6585 H   0  0  0  0  0  0  0  0  0  0  0  0
   10.7911   27.4802    6.6585 H   0  0  0  0  0  0  0  0  0  0  0  0
   25.6840   12.5872    6.6585 H   0  0  0  0  0  0  0  0  0  0  0  0
   25.6840   27.4802    6.6585 H   0  0  0  0  0  0  0  0  0  0  0  0
   11.9204   10.5417    7.4744 H   0  0  0  0  0  0  0  0  0  0  0  0
   11.9204   25.4347    7.4744 H   0  0  0  0  0  0  0  0  0  0  0  0
   26.8134   10.5417    7.4744 H   0  0  0  0  0  0  0  0  0  0  0  0
   26.8134   25.4347    7.4744 H   0  0  0  0  0  0  0  0  0  0  0  0
   12.7977   11.9907    7.3998 H   0  0  0  0  0  0  0  0  0  0  0  0
   12.7977   26.8837    7.3998 H   0  0  0  0  0  0  0  0  0  0  0  0
   27.6906   11.9907    7.3998 H   0  0  0  0  0  0  0  0  0  0  0  0
   27.6906   26.8837    7.3998 H   0  0  0  0  0  0  0  0  0  0  0  0
   12.8044    6.6091    6.8350 H   0  0  0  0  0  0  0  0  0  0  0  0
   12.8044   21.5020    6.8350 H   0  0  0  0  0  0  0  0  0  0  0  0
   27.6974    6.6091    6.8350 H   0  0  0  0  0  0  0  0  0  0  0  0
   27.6974   21.5020    6.8350 H   0  0  0  0  0  0  0  0  0  0  0  0
   12.6749    4.1958    6.7952 H   0  0  0  0  0  0  0  0  0  0  0  0
   12.6749   19.0888    6.7952 H   0  0  0  0  0  0  0  0  0  0  0  0
   27.5678    4.1958    6.7952 H   0  0  0  0  0  0  0  0  0  0  0  0
   27.5678   19.0888    6.7952 H   0  0  0  0  0  0  0  0  0  0  0  0
   12.9040    8.4557    7.1026 H   0  0  0  0  0  0  0  0  0  0  0  0
   12.9040   23.3487    7.1026 H   0  0  0  0  0  0  0  0  0  0  0  0
   27.7970    8.4557    7.1026 H   0  0  0  0  0  0  0  0  0  0  0  0
   27.7970   23.3487    7.1026 H   0  0  0  0  0  0  0  0  0  0  0  0
    2.0375    3.9425    6.9007 H   0  0  0  0  0  0  0  0  0  0  0  0
    2.0375   18.8354    6.9007 H   0  0  0  0  0  0  0  0  0  0  0  0
   16.9305    3.9425    6.9007 H   0  0  0  0  0  0  0  0  0  0  0  0
   16.9305   18.8354    6.9007 H   0  0  0  0  0  0  0  0  0  0  0  0
    2.2945    8.3146    6.7873 H   0  0  0  0  0  0  0  0  0  0  0  0
    2.2945   23.2076    6.7873 H   0  0  0  0  0  0  0  0  0  0  0  0
   17.1875    8.3146    6.7873 H   0  0  0  0  0  0  0  0  0  0  0  0
   17.1875   23.2076    6.7873 H   0  0  0  0  0  0  0  0  0  0  0  0
    2.1948    6.3839    6.9351 H   0  0  0  0  0  0  0  0  0  0  0  0
    2.1948   21.2769    6.9351 H   0  0  0  0  0  0  0  0  0  0  0  0
   17.0877    6.3839    6.9351 H   0  0  0  0  0  0  0  0  0  0  0  0
   17.0877   21.2769    6.9351 H   0  0  0  0  0  0  0  0  0  0  0  0
    2.3417   10.7544    6.7630 H   0  0  0  0  0  0  0  0  0  0  0  0
    2.3417   25.6474    6.7630 H   0  0  0  0  0  0  0  0  0  0  0  0
   17.2347   10.7544    6.7630 H   0  0  0  0  0  0  0  0  0  0  0  0
   17.2347   25.6474    6.7630 H   0  0  0  0  0  0  0  0  0  0  0  0
    6.7605   14.8602    6.9047 C   0  0  0  0  0  0  0  0  0  0  0  0
    6.7605   -0.0328    6.9047 C   0  0  0  0  0  0  0  0  0  0  0  0
    6.7605   29.7532    6.9047 C   0  0  0  0  0  0  0  0  0  0  0  0
   21.6534   14.8602    6.9047 C   0  0  0  0  0  0  0  0  0  0  0  0
   21.6534   -0.0328    6.9047 C   0  0  0  0  0  0  0  0  0  0  0  0
   21.6534   29.7532    6.9047 C   0  0  0  0  0  0  0  0  0  0  0  0
    6.1027    1.1999    6.8965 C   0  0  0  0  0  0  0  0  0  0  0  0
    6.1027   16.0929    6.8965 C   0  0  0  0  0  0  0  0  0  0  0  0
   20.9957    1.1999    6.8965 C   0  0  0  0  0  0  0  0  0  0  0  0
   20.9957   16.0929    6.8965 C   0  0  0  0  0  0  0  0  0  0  0  0
    4.7277    1.2881    6.9077 C   0  0  0  0  0  0  0  0  0  0  0  0
    4.7277   16.1811    6.9077 C   0  0  0  0  0  0  0  0  0  0  0  0
   19.6207    1.2881    6.9077 C   0  0  0  0  0  0  0  0  0  0  0  0
   19.6207   16.1811    6.9077 C   0  0  0  0  0  0  0  0  0  0  0  0
    3.9808    0.1263    6.9186 C   0  0  0  0  0  0  0  0  0  0  0  0
    3.9808   29.9122    6.9186 C   0  0  0  0  0  0  0  0  0  0  0  0
    3.9808   15.0192    6.9186 C   0  0  0  0  0  0  0  0  0  0  0  0
   18.8738    0.1263    6.9186 C   0  0  0  0  0  0  0  0  0  0  0  0
   18.8738   29.9122    6.9186 C   0  0  0  0  0  0  0  0  0  0  0  0
   18.8738   15.0192    6.9186 C   0  0  0  0  0  0  0  0  0  0  0  0
    4.5991   13.7804    6.9087 C   0  0  0  0  0  0  0  0  0  0  0  0
    4.5991   -1.1125    6.9087 C   0  0  0  0  0  0  0  0  0  0  0  0
    4.5991   28.6734    6.9087 C   0  0  0  0  0  0  0  0  0  0  0  0
   19.4920   13.7804    6.9087 C   0  0  0  0  0  0  0  0  0  0  0  0
   19.4920   -1.1125    6.9087 C   0  0  0  0  0  0  0  0  0  0  0  0
   19.4920   28.6734    6.9087 C   0  0  0  0  0  0  0  0  0  0  0  0
    5.9751   13.7063    6.9080 C   0  0  0  0  0  0  0  0  0  0  0  0
    5.9751   -1.1867    6.9080 C   0  0  0  0  0  0  0  0  0  0  0  0
    5.9751   28.5992    6.9080 C   0  0  0  0  0  0  0  0  0  0  0  0
   20.8681   13.7063    6.9080 C   0  0  0  0  0  0  0  0  0  0  0  0
   20.8681   -1.1867    6.9080 C   0  0  0  0  0  0  0  0  0  0  0  0
   20.8681   28.5992    6.9080 C   0  0  0  0  0  0  0  0  0  0  0  0
   10.9990   14.6948    6.8526 C   0  0  0  0  0  0  0  0  0  0  0  0
   10.9990   -0.1981    6.8526 C   0  0  0  0  0  0  0  0  0  0  0  0
   10.9990   29.5878    6.8526 C   0  0  0  0  0  0  0  0  0  0  0  0
   25.8920   14.6948    6.8526 C   0  0  0  0  0  0  0  0  0  0  0  0
   25.8920   -0.1981    6.8526 C   0  0  0  0  0  0  0  0  0  0  0  0
   25.8920   29.5878    6.8526 C   0  0  0  0  0  0  0  0  0  0  0  0
   10.3631    1.0351    7.0049 C   0  0  0  0  0  0  0  0  0  0  0  0
   10.3631   30.8211    7.0049 C   0  0  0  0  0  0  0  0  0  0  0  0
   10.3631   15.9281    7.0049 C   0  0  0  0  0  0  0  0  0  0  0  0
   25.2560    1.0351    7.0049 C   0  0  0  0  0  0  0  0  0  0  0  0
   25.2560   30.8211    7.0049 C   0  0  0  0  0  0  0  0  0  0  0  0
   25.2560   15.9281    7.0049 C   0  0  0  0  0  0  0  0  0  0  0  0
    8.9770    1.0560    7.0117 C   0  0  0  0  0  0  0  0  0  0  0  0
    8.9770   30.8419    7.0117 C   0  0  0  0  0  0  0  0  0  0  0  0
    8.9770   15.9489    7.0117 C   0  0  0  0  0  0  0  0  0  0  0  0
   23.8699    1.0560    7.0117 C   0  0  0  0  0  0  0  0  0  0  0  0
   23.8699   30.8419    7.0117 C   0  0  0  0  0  0  0  0  0  0  0  0
   23.8699   15.9489    7.0117 C   0  0  0  0  0  0  0  0  0  0  0  0
    8.2249   14.7841    6.9028 C   0  0  0  0  0  0  0  0  0  0  0  0
    8.2249   -0.1088    6.9028 C   0  0  0  0  0  0  0  0  0  0  0  0
    8.2249   29.6771    6.9028 C   0  0  0  0  0  0  0  0  0  0  0  0
   23.1178   14.7841    6.9028 C   0  0  0  0  0  0  0  0  0  0  0  0
   23.1178   -0.1088    6.9028 C   0  0  0  0  0  0  0  0  0  0  0  0
   23.1178   29.6771    6.9028 C   0  0  0  0  0  0  0  0  0  0  0  0
    8.8964   13.5637    6.8006 C   0  0  0  0  0  0  0  0  0  0  0  0
    8.8964   28.4566    6.8006 C   0  0  0  0  0  0  0  0  0  0  0  0
   23.7894   13.5637    6.8006 C   0  0  0  0  0  0  0  0  0  0  0  0
   23.7894   28.4566    6.8006 C   0  0  0  0  0  0  0  0  0  0  0  0
   10.2736   13.5259    6.7655 C   0  0  0  0  0  0  0  0  0  0  0  0
   10.2736   28.4189    6.7655 C   0  0  0  0  0  0  0  0  0  0  0  0
   25.1666   13.5259    6.7655 C   0  0  0  0  0  0  0  0  0  0  0  0
   25.1666   28.4189    6.7655 C   0  0  0  0  0  0  0  0  0  0  0  0
   12.4906   14.6870    6.8473 C   0  0  0  0  0  0  0  0  0  0  0  0
   12.4906   -0.2060    6.8473 C   0  0  0  0  0  0  0  0  0  0  0  0
   12.4906   29.5800    6.8473 C   0  0  0  0  0  0  0  0  0  0  0  0
   27.3835   14.6870    6.8473 C   0  0  0  0  0  0  0  0  0  0  0  0
   27.3835   -0.2060    6.8473 C   0  0  0  0  0  0  0  0  0  0  0  0
   27.3835   29.5800    6.8473 C   0  0  0  0  0  0  0  0  0  0  0  0
    2.4894    0.1699    6.9082 C   0  0  0  0  0  0  0  0  0  0  0  0
    2.4894   29.9559    6.9082 C   0  0  0  0  0  0  0  0  0  0  0  0
    2.4894   15.0629    6.9082 C   0  0  0  0  0  0  0  0  0  0  0  0
   17.3823    0.1699    6.9082 C   0  0  0  0  0  0  0  0  0  0  0  0
   17.3823   29.9559    6.9082 C   0  0  0  0  0  0  0  0  0  0  0  0
   17.3823   15.0629    6.9082 C   0  0  0  0  0  0  0  0  0  0  0  0
    0.0661    6.7141    6.8966 C   0  0  0  0  0  0  0  0  0  0  0  0
   29.8521    6.7141    6.8966 C   0  0  0  0  0  0  0  0  0  0  0  0
    0.0661   21.6070    6.8966 C   0  0  0  0  0  0  0  0  0  0  0  0
   29.8521   21.6070    6.8966 C   0  0  0  0  0  0  0  0  0  0  0  0
   14.9591    6.7141    6.8966 C   0  0  0  0  0  0  0  0  0  0  0  0
   14.9591   21.6070    6.8966 C   0  0  0  0  0  0  0  0  0  0  0  0
   13.7271    6.0564    6.8607 C   0  0  0  0  0  0  0  0  0  0  0  0
   13.7271   20.9493    6.8607 C   0  0  0  0  0  0  0  0  0  0  0  0
   -1.1658    6.0564    6.8607 C   0  0  0  0  0  0  0  0  0  0  0  0
   28.6201    6.0564    6.8607 C   0  0  0  0  0  0  0  0  0  0  0  0
   -1.1658   20.9493    6.8607 C   0  0  0  0  0  0  0  0  0  0  0  0
   28.6201   20.9493    6.8607 C   0  0  0  0  0  0  0  0  0  0  0  0
   13.6381    4.6812    6.8494 C   0  0  0  0  0  0  0  0  0  0  0  0
   13.6381   19.5741    6.8494 C   0  0  0  0  0  0  0  0  0  0  0  0
   28.5311    4.6812    6.8494 C   0  0  0  0  0  0  0  0  0  0  0  0
   28.5311   19.5741    6.8494 C   0  0  0  0  0  0  0  0  0  0  0  0
   14.7997    3.9326    6.8744 C   0  0  0  0  0  0  0  0  0  0  0  0
   14.7997   18.8255    6.8744 C   0  0  0  0  0  0  0  0  0  0  0  0
   -0.0933    3.9326    6.8744 C   0  0  0  0  0  0  0  0  0  0  0  0
   29.6926    3.9326    6.8744 C   0  0  0  0  0  0  0  0  0  0  0  0
   -0.0933   18.8255    6.8744 C   0  0  0  0  0  0  0  0  0  0  0  0
   29.6926   18.8255    6.8744 C   0  0  0  0  0  0  0  0  0  0  0  0
    1.1451    4.5515    6.9002 C   0  0  0  0  0  0  0  0  0  0  0  0
   30.9311    4.5515    6.9002 C   0  0  0  0  0  0  0  0  0  0  0  0
    1.1451   19.4445    6.9002 C   0  0  0  0  0  0  0  0  0  0  0  0
   30.9311   19.4445    6.9002 C   0  0  0  0  0  0  0  0  0  0  0  0
   16.0381    4.5515    6.9002 C   0  0  0  0  0  0  0  0  0  0  0  0
   16.0381   19.4445    6.9002 C   0  0  0  0  0  0  0  0  0  0  0  0
    1.2196    5.9277    6.9114 C   0  0  0  0  0  0  0  0  0  0  0  0
    1.2196   20.8207    6.9114 C   0  0  0  0  0  0  0  0  0  0  0  0
   16.1126    5.9277    6.9114 C   0  0  0  0  0  0  0  0  0  0  0  0
   16.1126   20.8207    6.9114 C   0  0  0  0  0  0  0  0  0  0  0  0
    0.2316   10.9513    6.9054 C   0  0  0  0  0  0  0  0  0  0  0  0
   30.0175   10.9513    6.9054 C   0  0  0  0  0  0  0  0  0  0  0  0
    0.2316   25.8443    6.9054 C   0  0  0  0  0  0  0  0  0  0  0  0
   30.0175   25.8443    6.9054 C   0  0  0  0  0  0  0  0  0  0  0  0
   15.1245   10.9513    6.9054 C   0  0  0  0  0  0  0  0  0  0  0  0
   15.1245   25.8443    6.9054 C   0  0  0  0  0  0  0  0  0  0  0  0
   13.8879   10.3155    7.0249 C   0  0  0  0  0  0  0  0  0  0  0  0
   13.8879   25.2085    7.0249 C   0  0  0  0  0  0  0  0  0  0  0  0
   -1.0051   10.3155    7.0249 C   0  0  0  0  0  0  0  0  0  0  0  0
   28.7808   10.3155    7.0249 C   0  0  0  0  0  0  0  0  0  0  0  0
   -1.0051   25.2085    7.0249 C   0  0  0  0  0  0  0  0  0  0  0  0
   28.7808   25.2085    7.0249 C   0  0  0  0  0  0  0  0  0  0  0  0
   13.8678    8.9293    7.0147 C   0  0  0  0  0  0  0  0  0  0  0  0
   13.8678   23.8223    7.0147 C   0  0  0  0  0  0  0  0  0  0  0  0
   -1.0251    8.9293    7.0147 C   0  0  0  0  0  0  0  0  0  0  0  0
   28.7608    8.9293    7.0147 C   0  0  0  0  0  0  0  0  0  0  0  0
   -1.0251   23.8223    7.0147 C   0  0  0  0  0  0  0  0  0  0  0  0
   28.7608   23.8223    7.0147 C   0  0  0  0  0  0  0  0  0  0  0  0
    0.1415    8.1788    6.9125 C   0  0  0  0  0  0  0  0  0  0  0  0
   29.9275    8.1788    6.9125 C   0  0  0  0  0  0  0  0  0  0  0  0
    0.1415   23.0718    6.9125 C   0  0  0  0  0  0  0  0  0  0  0  0
   29.9275   23.0718    6.9125 C   0  0  0  0  0  0  0  0  0  0  0  0
   15.0345    8.1788    6.9125 C   0  0  0  0  0  0  0  0  0  0  0  0
   15.0345   23.0718    6.9125 C   0  0  0  0  0  0  0  0  0  0  0  0
    1.3640    8.8513    6.8388 C   0  0  0  0  0  0  0  0  0  0  0  0
    1.3640   23.7443    6.8388 C   0  0  0  0  0  0  0  0  0  0  0  0
   16.2569    8.8513    6.8388 C   0  0  0  0  0  0  0  0  0  0  0  0
   16.2569   23.7443    6.8388 C   0  0  0  0  0  0  0  0  0  0  0  0
    1.4022   10.2289    6.8291 C   0  0  0  0  0  0  0  0  0  0  0  0
    1.4022   25.1218    6.8291 C   0  0  0  0  0  0  0  0  0  0  0  0
   16.2952   10.2289    6.8291 C   0  0  0  0  0  0  0  0  0  0  0  0
   16.2952   25.1218    6.8291 C   0  0  0  0  0  0  0  0  0  0  0  0
    0.2466   12.4421    6.8897 C   0  0  0  0  0  0  0  0  0  0  0  0
   30.0326   12.4421    6.8897 C   0  0  0  0  0  0  0  0  0  0  0  0
    0.2466   27.3351    6.8897 C   0  0  0  0  0  0  0  0  0  0  0  0
   30.0326   27.3351    6.8897 C   0  0  0  0  0  0  0  0  0  0  0  0
   15.1396   12.4421    6.8897 C   0  0  0  0  0  0  0  0  0  0  0  0
   15.1396   27.3351    6.8897 C   0  0  0  0  0  0  0  0  0  0  0  0
   14.7648    2.4408    6.8722 C   0  0  0  0  0  0  0  0  0  0  0  0
   14.7648   17.3338    6.8722 C   0  0  0  0  0  0  0  0  0  0  0  0
   -0.1281    2.4408    6.8722 C   0  0  0  0  0  0  0  0  0  0  0  0
   29.6578    2.4408    6.8722 C   0  0  0  0  0  0  0  0  0  0  0  0
   -0.1281   17.3338    6.8722 C   0  0  0  0  0  0  0  0  0  0  0  0
   29.6578   17.3338    6.8722 C   0  0  0  0  0  0  0  0  0  0  0  0
    0.0004   14.8905   11.8143 C   0  0  0  0  0  0  0  0  0  0  0  0
   29.7863   14.8905   11.8143 C   0  0  0  0  0  0  0  0  0  0  0  0
    0.0004   -0.0024   11.8143 C   0  0  0  0  0  0  0  0  0  0  0  0
    0.0004   29.7835   11.8143 C   0  0  0  0  0  0  0  0  0  0  0  0
   29.7863   -0.0024   11.8143 C   0  0  0  0  0  0  0  0  0  0  0  0
   29.7863   29.7835   11.8143 C   0  0  0  0  0  0  0  0  0  0  0  0
   14.8934   14.8905   11.8143 C   0  0  0  0  0  0  0  0  0  0  0  0
   14.8934   -0.0024   11.8143 C   0  0  0  0  0  0  0  0  0  0  0  0
   14.8934   29.7835   11.8143 C   0  0  0  0  0  0  0  0  0  0  0  0
    0.0109   14.8884   13.1753 C   0  0  0  0  0  0  0  0  0  0  0  0
   29.7969   14.8884   13.1753 C   0  0  0  0  0  0  0  0  0  0  0  0
    0.0109   -0.0046   13.1753 C   0  0  0  0  0  0  0  0  0  0  0  0
    0.0109   29.7813   13.1753 C   0  0  0  0  0  0  0  0  0  0  0  0
   29.7969   -0.0046   13.1753 C   0  0  0  0  0  0  0  0  0  0  0  0
   29.7969   29.7813   13.1753 C   0  0  0  0  0  0  0  0  0  0  0  0
   14.9039   14.8884   13.1753 C   0  0  0  0  0  0  0  0  0  0  0  0
   14.9039   -0.0046   13.1753 C   0  0  0  0  0  0  0  0  0  0  0  0
   14.9039   29.7813   13.1753 C   0  0  0  0  0  0  0  0  0  0  0  0
    0.0116   14.8888    0.5960 C   0  0  0  0  0  0  0  0  0  0  0  0
   29.7975   14.8888    0.5960 C   0  0  0  0  0  0  0  0  0  0  0  0
    0.0116   -0.0042    0.5960 C   0  0  0  0  0  0  0  0  0  0  0  0
    0.0116   29.7818    0.5960 C   0  0  0  0  0  0  0  0  0  0  0  0
   29.7975   -0.0042    0.5960 C   0  0  0  0  0  0  0  0  0  0  0  0
   29.7975   29.7818    0.5960 C   0  0  0  0  0  0  0  0  0  0  0  0
   14.9045   14.8888    0.5960 C   0  0  0  0  0  0  0  0  0  0  0  0
   14.9045   -0.0042    0.5960 C   0  0  0  0  0  0  0  0  0  0  0  0
   14.9045   29.7818    0.5960 C   0  0  0  0  0  0  0  0  0  0  0  0
    0.0137    0.0002    1.9574 C   0  0  0  0  0  0  0  0  0  0  0  0
    0.0137   29.7861    1.9574 C   0  0  0  0  0  0  0  0  0  0  0  0
   29.7996    0.0002    1.9574 C   0  0  0  0  0  0  0  0  0  0  0  0
   29.7996   29.7861    1.9574 C   0  0  0  0  0  0  0  0  0  0  0  0
    0.0137   14.8932    1.9574 C   0  0  0  0  0  0  0  0  0  0  0  0
   29.7996   14.8932    1.9574 C   0  0  0  0  0  0  0  0  0  0  0  0
   14.9067    0.0002    1.9574 C   0  0  0  0  0  0  0  0  0  0  0  0
   14.9067   29.7861    1.9574 C   0  0  0  0  0  0  0  0  0  0  0  0
   14.9067   14.8932    1.9574 C   0  0  0  0  0  0  0  0  0  0  0  0
   11.0853    2.2050    7.0859 N   0  0  0  0  0  0  0  0  0  0  0  0
   11.0853   17.0980    7.0859 N   0  0  0  0  0  0  0  0  0  0  0  0
   25.9783    2.2050    7.0859 N   0  0  0  0  0  0  0  0  0  0  0  0
   25.9783   17.0980    7.0859 N   0  0  0  0  0  0  0  0  0  0  0  0
   12.7146   11.0335    7.0940 N   0  0  0  0  0  0  0  0  0  0  0  0
   12.7146   25.9265    7.0940 N   0  0  0  0  0  0  0  0  0  0  0  0
   27.6076   11.0335    7.0940 N   0  0  0  0  0  0  0  0  0  0  0  0
   27.6076   25.9265    7.0940 N   0  0  0  0  0  0  0  0  0  0  0  0
   14.8762    0.0016   10.6634 N   0  0  0  0  0  0  0  0  0  0  0  0
   14.8762   29.7876   10.6634 N   0  0  0  0  0  0  0  0  0  0  0  0
   14.8762   14.8946   10.6634 N   0  0  0  0  0  0  0  0  0  0  0  0
   -0.0168    0.0016   10.6634 N   0  0  0  0  0  0  0  0  0  0  0  0
   -0.0168   29.7876   10.6634 N   0  0  0  0  0  0  0  0  0  0  0  0
   29.7692    0.0016   10.6634 N   0  0  0  0  0  0  0  0  0  0  0  0
   29.7692   29.7876   10.6634 N   0  0  0  0  0  0  0  0  0  0  0  0
   -0.0168   14.8946   10.6634 N   0  0  0  0  0  0  0  0  0  0  0  0
   29.7692   14.8946   10.6634 N   0  0  0  0  0  0  0  0  0  0  0  0
    0.0144    0.0070    3.1083 N   0  0  0  0  0  0  0  0  0  0  0  0
    0.0144   29.7929    3.1083 N   0  0  0  0  0  0  0  0  0  0  0  0
   29.8004    0.0070    3.1083 N   0  0  0  0  0  0  0  0  0  0  0  0
   29.8004   29.7929    3.1083 N   0  0  0  0  0  0  0  0  0  0  0  0
    0.0144   14.9000    3.1083 N   0  0  0  0  0  0  0  0  0  0  0  0
   29.8004   14.9000    3.1083 N   0  0  0  0  0  0  0  0  0  0  0  0
   14.9074    0.0070    3.1083 N   0  0  0  0  0  0  0  0  0  0  0  0
   14.9074   29.7929    3.1083 N   0  0  0  0  0  0  0  0  0  0  0  0
   14.9074   14.9000    3.1083 N   0  0  0  0  0  0  0  0  0  0  0  0
   12.9955   14.6544    7.9917 O   0  0  0  0  0  0  0  0  0  0  0  0
   12.9955   -0.2386    7.9917 O   0  0  0  0  0  0  0  0  0  0  0  0
   12.9955   29.5474    7.9917 O   0  0  0  0  0  0  0  0  0  0  0  0
   27.8885   14.6544    7.9917 O   0  0  0  0  0  0  0  0  0  0  0  0
   27.8885   -0.2386    7.9917 O   0  0  0  0  0  0  0  0  0  0  0  0
   27.8885   29.5474    7.9917 O   0  0  0  0  0  0  0  0  0  0  0  0
   13.0260   14.7523    5.7265 O   0  0  0  0  0  0  0  0  0  0  0  0
   13.0260   -0.1407    5.7265 O   0  0  0  0  0  0  0  0  0  0  0  0
   13.0260   29.6452    5.7265 O   0  0  0  0  0  0  0  0  0  0  0  0
   27.9190   14.7523    5.7265 O   0  0  0  0  0  0  0  0  0  0  0  0
   27.9190   -0.1407    5.7265 O   0  0  0  0  0  0  0  0  0  0  0  0
   27.9190   29.6452    5.7265 O   0  0  0  0  0  0  0  0  0  0  0  0
    1.9541    0.2456    8.0302 O   0  0  0  0  0  0  0  0  0  0  0  0
    1.9541   30.0316    8.0302 O   0  0  0  0  0  0  0  0  0  0  0  0
    1.9541   15.1386    8.0302 O   0  0  0  0  0  0  0  0  0  0  0  0
   16.8470    0.2456    8.0302 O   0  0  0  0  0  0  0  0  0  0  0  0
   16.8470   30.0316    8.0302 O   0  0  0  0  0  0  0  0  0  0  0  0
   16.8470   15.1386    8.0302 O   0  0  0  0  0  0  0  0  0  0  0  0
    1.9950    0.0991    5.7651 O   0  0  0  0  0  0  0  0  0  0  0  0
    1.9950   29.8850    5.7651 O   0  0  0  0  0  0  0  0  0  0  0  0
    1.9950   14.9920    5.7651 O   0  0  0  0  0  0  0  0  0  0  0  0
   16.8880    0.0991    5.7651 O   0  0  0  0  0  0  0  0  0  0  0  0
   16.8880   29.8850    5.7651 O   0  0  0  0  0  0  0  0  0  0  0  0
   16.8880   14.9920    5.7651 O   0  0  0  0  0  0  0  0  0  0  0  0
    0.2493   12.9679    8.0222 O   0  0  0  0  0  0  0  0  0  0  0  0
   30.0353   12.9679    8.0222 O   0  0  0  0  0  0  0  0  0  0  0  0
    0.2493   27.8609    8.0222 O   0  0  0  0  0  0  0  0  0  0  0  0
   30.0353   27.8609    8.0222 O   0  0  0  0  0  0  0  0  0  0  0  0
   15.1423   12.9679    8.0222 O   0  0  0  0  0  0  0  0  0  0  0  0
   15.1423   27.8609    8.0222 O   0  0  0  0  0  0  0  0  0  0  0  0
    0.2054   12.9528    5.7547 O   0  0  0  0  0  0  0  0  0  0  0  0
   29.9913   12.9528    5.7547 O   0  0  0  0  0  0  0  0  0  0  0  0
    0.2054   27.8458    5.7547 O   0  0  0  0  0  0  0  0  0  0  0  0
   29.9913   27.8458    5.7547 O   0  0  0  0  0  0  0  0  0  0  0  0
   15.0983   12.9528    5.7547 O   0  0  0  0  0  0  0  0  0  0  0  0
   15.0983   27.8458    5.7547 O   0  0  0  0  0  0  0  0  0  0  0  0
   14.6541    1.9247    8.0033 O   0  0  0  0  0  0  0  0  0  0  0  0
   14.6541   16.8177    8.0033 O   0  0  0  0  0  0  0  0  0  0  0  0
   -0.2389    1.9247    8.0033 O   0  0  0  0  0  0  0  0  0  0  0  0
   29.5471    1.9247    8.0033 O   0  0  0  0  0  0  0  0  0  0  0  0
   -0.2389   16.8177    8.0033 O   0  0  0  0  0  0  0  0  0  0  0  0
   29.5471   16.8177    8.0033 O   0  0  0  0  0  0  0  0  0  0  0  0
   14.8658    1.9232    5.7435 O   0  0  0  0  0  0  0  0  0  0  0  0
   14.8658   16.8162    5.7435 O   0  0  0  0  0  0  0  0  0  0  0  0
   -0.0271    1.9232    5.7435 O   0  0  0  0  0  0  0  0  0  0  0  0
   29.7588    1.9232    5.7435 O   0  0  0  0  0  0  0  0  0  0  0  0
   -0.0271   16.8162    5.7435 O   0  0  0  0  0  0  0  0  0  0  0  0
   29.7588   16.8162    5.7435 O   0  0  0  0  0  0  0  0  0  0  0  0
  1300  1  0  0  0  0
  1325  1  0  0  0  0
  1335  1  0  0  0  0
  1351  1  0  0  0  0
  2301  1  0  0  0  0
  2314  1  0  0  0  0
  2336  1  0  0  0  0
  2352  1  0  0  0  0
  3296  1  0  0  0  0
  3323  1  0  0  0  0
  3349  1  0  0  0  0
  4297  1  0  0  0  0
  4324  1  0  0  0  0
  4337  1  0  0  0  0
  5298  1  0  0  0  0
  5315  1  0  0  0  0
  5350  1  0  0  0  0
  6299  1  0  0  0  0
  6316  1  0  0  0  0
  6338  1  0  0  0  0
  7304  1  0  0  0  0
  7311  1  0  0  0  0
  7328  1  0  0  0  0
  7339  1  0  0  0  0
  7348  1  0  0  0  0
  8302  1  0  0  0  0
  8312  1  0  0  0  0
  8326  1  0  0  0  0
  8347  1  0  0  0  0
  9303  1  0  0  0  0
  9313  1  0  0  0  0
  9327  1  0  0  0  0
  9340  1  0  0  0  0
 10294  1  0  0  0  0
 10319  1  0  0  0  0
 10329  1  0  0  0  0
 10345  1  0  0  0  0
 11295  1  0  0  0  0
 11308  1  0  0  0  0
 11330  1  0  0  0  0
 11346  1  0  0  0  0
 12290  1  0  0  0  0
 12317  1  0  0  0  0
 12343  1  0  0  0  0
 13291  1  0  0  0  0
 13318  1  0  0  0  0
 13331  1  0  0  0  0
 14292  1  0  0  0  0
 14309  1  0  0  0  0
 14344  1  0  0  0  0
 15293  1  0  0  0  0
 15310  1  0  0  0  0
 15332  1  0  0  0  0
 16289  1  0  0  0  0
 16305  1  0  0  0  0
 16322  1  0  0  0  0
 16333  1  0  0  0  0
 16342  1  0  0  0  0
 17287  1  0  0  0  0
 17306  1  0  0  0  0
 17320  1  0  0  0  0
 17341  1  0  0  0  0
 18288  1  0  0  0  0
 18307  1  0  0  0  0
 18321  1  0  0  0  0
 18334  1  0  0  0  0
 19279  1  0  0  0  0
 20280  1  0  0  0  0
 21281  1  0  0  0  0
 22282  1  0  0  0  0
 23279  1  0  0  0  0
 24280  1  0  0  0  0
 25281  1  0  0  0  0
 26282  1  0  0  0  0
 27 97  1  0  0  0  0
 28 98  1  0  0  0  0
 29 99  1  0  0  0  0
 30100  1  0  0  0  0
 31101  1  0  0  0  0
 32102  1  0  0  0  0
 33103  1  0  0  0  0
 34104  1  0  0  0  0
 35135  1  0  0  0  0
 36137  1  0  0  0  0
 37138  1  0  0  0  0
 38140  1  0  0  0  0
 39111  1  0  0  0  0
 40113  1  0  0  0  0
 41114  1  0  0  0  0
 42116  1  0  0  0  0
 43147  1  0  0  0  0
 44148  1  0  0  0  0
 45149  1  0  0  0  0
 46150  1  0  0  0  0
 47117  1  0  0  0  0
 48119  1  0  0  0  0
 49120  1  0  0  0  0
 50122  1  0  0  0  0
 51151  1  0  0  0  0
 52152  1  0  0  0  0
 53153  1  0  0  0  0
 54154  1  0  0  0  0
 55283  1  0  0  0  0
 56284  1  0  0  0  0
 57285  1  0  0  0  0
 58286  1  0  0  0  0
 59283  1  0  0  0  0
 60284  1  0  0  0  0
 61285  1  0  0  0  0
 62286  1  0  0  0  0
 63173  1  0  0  0  0
 64174  1  0  0  0  0
 65176  1  0  0  0  0
 66178  1  0  0  0  0
 67179  1  0  0  0  0
 68180  1  0  0  0  0
 69181  1  0  0  0  0
 70182  1  0  0  0  0
 71211  1  0  0  0  0
 72212  1  0  0  0  0
 73214  1  0  0  0  0
 74216  1  0  0  0  0
 75189  1  0  0  0  0
 76191  1  0  0  0  0
 77193  1  0  0  0  0
 78194  1  0  0  0  0
 79223  1  0  0  0  0
 80224  1  0  0  0  0
 81225  1  0  0  0  0
 82226  1  0  0  0  0
 83195  1  0  0  0  0
 84196  1  0  0  0  0
 85197  1  0  0  0  0
 86198  1  0  0  0  0
 87227  1  0  0  0  0
 88228  1  0  0  0  0
 89229  1  0  0  0  0
 90230  1  0  0  0  0
 91 98  1  0  0  0  0
 91117  1  0  0  0  0
 91141  1  0  0  0  0
 92 97  1  0  0  0  0
 92118  1  0  0  0  0
 92142  1  0  0  0  0
 93119  1  0  0  0  0
 93143  1  0  0  0  0
 94100  1  0  0  0  0
 94120  1  0  0  0  0
 94144  1  0  0  0  0
 95 99  1  0  0  0  0
 95121  1  0  0  0  0
 95145  1  0  0  0  0
 96122  1  0  0  0  0
 96146  1  0  0  0  0
 97101  1  0  0  0  0
 98102  1  0  0  0  0
 99103  1  0  0  0  0
100104  1  0  0  0  0
101105  1  0  0  0  0
102107  1  0  0  0  0
103108  1  0  0  0  0
104110  1  0  0  0  0
105112  1  0  0  0  0
105161  1  0  0  0  0
106113  1  0  0  0  0
106162  1  0  0  0  0
107111  1  0  0  0  0
107163  1  0  0  0  0
108115  1  0  0  0  0
108164  1  0  0  0  0
109116  1  0  0  0  0
109165  1  0  0  0  0
110114  1  0  0  0  0
110166  1  0  0  0  0
111117  1  0  0  0  0
112118  1  0  0  0  0
113119  1  0  0  0  0
114120  1  0  0  0  0
115121  1  0  0  0  0
116122  1  0  0  0  0
123131  1  0  0  0  0
123151  1  0  0  0  0
123155  1  0  0  0  0
124129  1  0  0  0  0
124156  1  0  0  0  0
125130  1  0  0  0  0
125152  1  0  0  0  0
125157  1  0  0  0  0
126134  1  0  0  0  0
126153  1  0  0  0  0
126158  1  0  0  0  0
127132  1  0  0  0  0
127159  1  0  0  0  0
128133  1  0  0  0  0
128154  1  0  0  0  0
128160  1  0  0  0  0
129135  1  0  0  0  0
129279  1  0  0  0  0
130136  1  0  0  0  0
131137  1  0  0  0  0
131280  1  0  0  0  0
132138  1  0  0  0  0
132281  1  0  0  0  0
133139  1  0  0  0  0
134140  1  0  0  0  0
134282  1  0  0  0  0
135142  1  0  0  0  0
136143  1  0  0  0  0
137141  1  0  0  0  0
138145  1  0  0  0  0
139146  1  0  0  0  0
140144  1  0  0  0  0
141147  1  0  0  0  0
143148  1  0  0  0  0
144149  1  0  0  0  0
146150  1  0  0  0  0
147151  1  0  0  0  0
148152  1  0  0  0  0
149153  1  0  0  0  0
150154  1  0  0  0  0
155305  1  0  0  0  0
155311  1  0  0  0  0
156306  1  0  0  0  0
156312  1  0  0  0  0
157307  1  0  0  0  0
157313  1  0  0  0  0
158308  1  0  0  0  0
158314  1  0  0  0  0
159309  1  0  0  0  0
159315  1  0  0  0  0
160310  1  0  0  0  0
160316  1  0  0  0  0
161317  1  0  0  0  0
161323  1  0  0  0  0
162318  1  0  0  0  0
162324  1  0  0  0  0
163319  1  0  0  0  0
163325  1  0  0  0  0
164320  1  0  0  0  0
164326  1  0  0  0  0
165321  1  0  0  0  0
165327  1  0  0  0  0
166322  1  0  0  0  0
166328  1  0  0  0  0
167175  1  0  0  0  0
167195  1  0  0  0  0
167217  1  0  0  0  0
168176  1  0  0  0  0
168218  1  0  0  0  0
169177  1  0  0  0  0
169196  1  0  0  0  0
169219  1  0  0  0  0
170178  1  0  0  0  0
170220  1  0  0  0  0
171173  1  0  0  0  0
171197  1  0  0  0  0
171221  1  0  0  0  0
172174  1  0  0  0  0
172198  1  0  0  0  0
172222  1  0  0  0  0
173179  1  0  0  0  0
174180  1  0  0  0  0
176181  1  0  0  0  0
178182  1  0  0  0  0
179183  1  0  0  0  0
180184  1  0  0  0  0
181186  1  0  0  0  0
182188  1  0  0  0  0
183193  1  0  0  0  0
183237  1  0  0  0  0
184194  1  0  0  0  0
184238  1  0  0  0  0
185189  1  0  0  0  0
185239  1  0  0  0  0
186190  1  0  0  0  0
186240  1  0  0  0  0
187191  1  0  0  0  0
187241  1  0  0  0  0
188192  1  0  0  0  0
188242  1  0  0  0  0
189195  1  0  0  0  0
191196  1  0  0  0  0
193197  1  0  0  0  0
194198  1  0  0  0  0
199207  1  0  0  0  0
199227  1  0  0  0  0
199231  1  0  0  0  0
200208  1  0  0  0  0
200232  1  0  0  0  0
201209  1  0  0  0  0
201228  1  0  0  0  0
201233  1  0  0  0  0
202210  1  0  0  0  0
202234  1  0  0  0  0
203205  1  0  0  0  0
203229  1  0  0  0  0
203235  1  0  0  0  0
204206  1  0  0  0  0
204230  1  0  0  0  0
204236  1  0  0  0  0
205211  1  0  0  0  0
205283  1  0  0  0  0
206212  1  0  0  0  0
206284  1  0  0  0  0
207213  1  0  0  0  0
208214  1  0  0  0  0
208285  1  0  0  0  0
209215  1  0  0  0  0
210216  1  0  0  0  0
210286  1  0  0  0  0
211221  1  0  0  0  0
212222  1  0  0  0  0
213217  1  0  0  0  0
214218  1  0  0  0  0
215219  1  0  0  0  0
216220  1  0  0  0  0
217223  1  0  0  0  0
219224  1  0  0  0  0
221225  1  0  0  0  0
222226  1  0  0  0  0
223227  1  0  0  0  0
224228  1  0  0  0  0
225229  1  0  0  0  0
226230  1  0  0  0  0
231329  1  0  0  0  0
231335  1  0  0  0  0
232330  1  0  0  0  0
232336  1  0  0  0  0
233331  1  0  0  0  0
233337  1  0  0  0  0
234332  1  0  0  0  0
234338  1  0  0  0  0
235333  1  0  0  0  0
235339  1  0  0  0  0
236334  1  0  0  0  0
236340  1  0  0  0  0
237341  1  0  0  0  0
237347  1  0  0  0  0
238342  1  0  0  0  0
238348  1  0  0  0  0
239343  1  0  0  0  0
239349  1  0  0  0  0
240344  1  0  0  0  0
240350  1  0  0  0  0
241345  1  0  0  0  0
241351  1  0  0  0  0
242346  1  0  0  0  0
242352  1  0  0  0  0
243252  1  0  0  0  0
243294  1  0  0  0  0
244253  1  0  0  0  0
244295  1  0  0  0  0
245254  1  0  0  0  0
245290  1  0  0  0  0
246255  1  0  0  0  0
246291  1  0  0  0  0
247256  1  0  0  0  0
247292  1  0  0  0  0
248257  1  0  0  0  0
248293  1  0  0  0  0
249258  1  0  0  0  0
249289  1  0  0  0  0
250259  1  0  0  0  0
250287  1  0  0  0  0
251260  1  0  0  0  0
251288  1  0  0  0  0
261274  1  0  0  0  0
262275  1  0  0  0  0
263270  1  0  0  0  0
264271  1  0  0  0  0
265272  1  0  0  0  0
266273  1  0  0  0  0
267278  1  0  0  0  0
268276  1  0  0  0  0
269277  1  0  0  0  0
270296  1  0  0  0  0
271297  1  0  0  0  0
272298  1  0  0  0  0
273299  1  0  0  0  0
274300  1  0  0  0  0
275301  1  0  0  0  0
276302  1  0  0  0  0
277303  1  0  0  0  0
278304  1  0  0  0  0
M  END
$$$$
