nh2_bpdc_zn4o_pcu_ip2_off400
AtomForge visual export

866928  0  0  0  0            999 V2000
    9.4274    7.3762    7.4140 Zn  0  0  0  0  0  0  0  0  0  0  0  0
    9.4274   24.1922    7.4140 Zn  0  0  0  0  0  0  0  0  0  0  0  0
   26.2434    7.3762    7.4140 Zn  0  0  0  0  0  0  0  0  0  0  0  0
   26.2434   24.1922    7.4140 Zn  0  0  0  0  0  0  0  0  0  0  0  0
    7.3892    9.4484    7.4311 Zn  0  0  0  0  0  0  0  0  0  0  0  0
    7.3892   26.2644    7.4311 Zn  0  0  0  0  0  0  0  0  0  0  0  0
   24.2052    9.4484    7.4311 Zn  0  0  0  0  0  0  0  0  0  0  0  0
   24.2052   26.2644    7.4311 Zn  0  0  0  0  0  0  0  0  0  0  0  0
    7.3728    7.3748    9.5055 Zn  0  0  0  0  0  0  0  0  0  0  0  0
    7.3728   24.1908    9.5055 Zn  0  0  0  0  0  0  0  0  0  0  0  0
   24.1888    7.3748    9.5055 Zn  0  0  0  0  0  0  0  0  0  0  0  0
   24.1888   24.1908    9.5055 Zn  0  0  0  0  0  0  0  0  0  0  0  0
    9.4545    9.4255    9.4680 Zn  0  0  0  0  0  0  0  0  0  0  0  0
    9.4545   26.2415    9.4680 Zn  0  0  0  0  0  0  0  0  0  0  0  0
   26.2705    9.4255    9.4680 Zn  0  0  0  0  0  0  0  0  0  0  0  0
   26.2705   26.2415    9.4680 Zn  0  0  0  0  0  0  0  0  0  0  0  0
   16.1342   14.0936   14.1256 Zn  0  0  0  0  0  0  0  0  0  0  0  0
   16.1342   30.9096   14.1256 Zn  0  0  0  0  0  0  0  0  0  0  0  0
   -0.6818   14.0936   14.1256 Zn  0  0  0  0  0  0  0  0  0  0  0  0
   32.9502   14.0936   14.1256 Zn  0  0  0  0  0  0  0  0  0  0  0  0
   -0.6818   30.9096   14.1256 Zn  0  0  0  0  0  0  0  0  0  0  0  0
   32.9502   30.9096   14.1256 Zn  0  0  0  0  0  0  0  0  0  0  0  0
   14.0914   16.1538   14.1501 Zn  0  0  0  0  0  0  0  0  0  0  0  0
   14.0914   -0.6622   14.1501 Zn  0  0  0  0  0  0  0  0  0  0  0  0
   14.0914   32.9698   14.1501 Zn  0  0  0  0  0  0  0  0  0  0  0  0
   30.9074   16.1538   14.1501 Zn  0  0  0  0  0  0  0  0  0  0  0  0
   30.9074   -0.6622   14.1501 Zn  0  0  0  0  0  0  0  0  0  0  0  0
   30.9074   32.9698   14.1501 Zn  0  0  0  0  0  0  0  0  0  0  0  0
   14.0865   14.0804   -0.6001 Zn  0  0  0  0  0  0  0  0  0  0  0  0
   14.0865   14.0804   16.2159 Zn  0  0  0  0  0  0  0  0  0  0  0  0
   14.0865   30.8964   -0.6001 Zn  0  0  0  0  0  0  0  0  0  0  0  0
   14.0865   30.8964   16.2159 Zn  0  0  0  0  0  0  0  0  0  0  0  0
   30.9025   14.0804   -0.6001 Zn  0  0  0  0  0  0  0  0  0  0  0  0
   30.9025   14.0804   16.2159 Zn  0  0  0  0  0  0  0  0  0  0  0  0
   30.9025   30.8964   -0.6001 Zn  0  0  0  0  0  0  0  0  0  0  0  0
   30.9025   30.8964   16.2159 Zn  0  0  0  0  0  0  0  0  0  0  0  0
   16.1674   16.1448   -0.6332 Zn  0  0  0  0  0  0  0  0  0  0  0  0
   16.1674   16.1448   16.1828 Zn  0  0  0  0  0  0  0  0  0  0  0  0
   16.1674   -0.6712   -0.6332 Zn  0  0  0  0  0  0  0  0  0  0  0  0
   16.1674   -0.6712   16.1828 Zn  0  0  0  0  0  0  0  0  0  0  0  0
   16.1674   32.9608   -0.6332 Zn  0  0  0  0  0  0  0  0  0  0  0  0
   16.1674   32.9608   16.1828 Zn  0  0  0  0  0  0  0  0  0  0  0  0
   -0.6486   16.1448   -0.6332 Zn  0  0  0  0  0  0  0  0  0  0  0  0
   -0.6486   16.1448   16.1828 Zn  0  0  0  0  0  0  0  0  0  0  0  0
   32.9834   16.1448   -0.6332 Zn  0  0  0  0  0  0  0  0  0  0  0  0
   32.9834   16.1448   16.1828 Zn  0  0  0  0  0  0  0  0  0  0  0  0
   -0.6486   -0.6712   -0.6332 Zn  0  0  0  0  0  0  0  0  0  0  0  0
   -0.6486   -0.6712   16.1828 Zn  0  0  0  0  0  0  0  0  0  0  0  0
   -0.6486   32.9608   -0.6332 Zn  0  0  0  0  0  0  0  0  0  0  0  0
   -0.6486   32.9608   16.1828 Zn  0  0  0  0  0  0  0  0  0  0  0  0
   32.9834   -0.6712   -0.6332 Zn  0  0  0  0  0  0  0  0  0  0  0  0
   32.9834   -0.6712   16.1828 Zn  0  0  0  0  0  0  0  0  0  0  0  0
   32.9834   32.9608   -0.6332 Zn  0  0  0  0  0  0  0  0  0  0  0  0
   32.9834   32.9608   16.1828 Zn  0  0  0  0  0  0  0  0  0  0  0  0
   13.5116    8.6051   10.5259 H   0  0  0  0  0  0  0  0  0  0  0  0
   13.5116   25.4211   10.5259 H   0  0  0  0  0  0  0  0  0  0  0  0
   30.3276    8.6051   10.5259 H   0  0  0  0  0  0  0  0  0  0  0  0
   30.3276   25.4211   10.5259 H   0  0  0  0  0  0  0  0  0  0  0  0
   15.9117    8.6560   10.4197 H   0  0  0  0  0  0  0  0  0  0  0  0
   15.9117   25.4720   10.4197 H   0  0  0  0  0  0  0  0  0  0  0  0
   32.7277    8.6560   10.4197 H   0  0  0  0  0  0  0  0  0  0  0  0
   32.7277   25.4720   10.4197 H   0  0  0  0  0  0  0  0  0  0  0  0
    0.8811    8.2819   10.4537 H   0  0  0  0  0  0  0  0  0  0  0  0
    0.8811   25.0979   10.4537 H   0  0  0  0  0  0  0  0  0  0  0  0
   17.6971    8.2819   10.4537 H   0  0  0  0  0  0  0  0  0  0  0  0
   17.6971   25.0979   10.4537 H   0  0  0  0  0  0  0  0  0  0  0  0
    3.2957    8.2769   10.5582 H   0  0  0  0  0  0  0  0  0  0  0  0
    3.2957   25.0929   10.5582 H   0  0  0  0  0  0  0  0  0  0  0  0
   20.1117    8.2769   10.5582 H   0  0  0  0  0  0  0  0  0  0  0  0
   20.1117   25.0929   10.5582 H   0  0  0  0  0  0  0  0  0  0  0  0
    3.5132    8.5174    6.3198 H   0  0  0  0  0  0  0  0  0  0  0  0
    3.5132   25.3334    6.3198 H   0  0  0  0  0  0  0  0  0  0  0  0
   20.3292    8.5174    6.3198 H   0  0  0  0  0  0  0  0  0  0  0  0
   20.3292   25.3334    6.3198 H   0  0  0  0  0  0  0  0  0  0  0  0
    1.1051    8.5089    6.1712 H   0  0  0  0  0  0  0  0  0  0  0  0
    1.1051   25.3249    6.1712 H   0  0  0  0  0  0  0  0  0  0  0  0
   17.9211    8.5089    6.1712 H   0  0  0  0  0  0  0  0  0  0  0  0
   17.9211   25.3249    6.1712 H   0  0  0  0  0  0  0  0  0  0  0  0
   16.3573    9.1992    5.5422 H   0  0  0  0  0  0  0  0  0  0  0  0
   16.3573   26.0152    5.5422 H   0  0  0  0  0  0  0  0  0  0  0  0
   -0.4587    9.1992    5.5422 H   0  0  0  0  0  0  0  0  0  0  0  0
   33.1733    9.1992    5.5422 H   0  0  0  0  0  0  0  0  0  0  0  0
   -0.4587   26.0152    5.5422 H   0  0  0  0  0  0  0  0  0  0  0  0
   33.1733   26.0152    5.5422 H   0  0  0  0  0  0  0  0  0  0  0  0
   16.0863    7.5577    5.4017 H   0  0  0  0  0  0  0  0  0  0  0  0
   16.0863   24.3737    5.4017 H   0  0  0  0  0  0  0  0  0  0  0  0
   -0.7297    7.5577    5.4017 H   0  0  0  0  0  0  0  0  0  0  0  0
   32.9023    7.5577    5.4017 H   0  0  0  0  0  0  0  0  0  0  0  0
   -0.7297   24.3737    5.4017 H   0  0  0  0  0  0  0  0  0  0  0  0
   32.9023   24.3737    5.4017 H   0  0  0  0  0  0  0  0  0  0  0  0
   13.3440    8.2374    6.2832 H   0  0  0  0  0  0  0  0  0  0  0  0
   13.3440   25.0534    6.2832 H   0  0  0  0  0  0  0  0  0  0  0  0
   30.1600    8.2374    6.2832 H   0  0  0  0  0  0  0  0  0  0  0  0
   30.1600   25.0534    6.2832 H   0  0  0  0  0  0  0  0  0  0  0  0
    6.3208   13.5028    8.3166 H   0  0  0  0  0  0  0  0  0  0  0  0
    6.3208   30.3188    8.3166 H   0  0  0  0  0  0  0  0  0  0  0  0
   23.1368   13.5028    8.3166 H   0  0  0  0  0  0  0  0  0  0  0  0
   23.1368   30.3188    8.3166 H   0  0  0  0  0  0  0  0  0  0  0  0
    6.4243   15.9020    8.3027 H   0  0  0  0  0  0  0  0  0  0  0  0
    6.4243   32.7180    8.3027 H   0  0  0  0  0  0  0  0  0  0  0  0
   23.2403   15.9020    8.3027 H   0  0  0  0  0  0  0  0  0  0  0  0
   23.2403   32.7180    8.3027 H   0  0  0  0  0  0  0  0  0  0  0  0
    6.3851    0.8769    8.5856 H   0  0  0  0  0  0  0  0  0  0  0  0
    6.3851   17.6929    8.5856 H   0  0  0  0  0  0  0  0  0  0  0  0
   23.2011    0.8769    8.5856 H   0  0  0  0  0  0  0  0  0  0  0  0
   23.2011   17.6929    8.5856 H   0  0  0  0  0  0  0  0  0  0  0  0
    6.2805    3.2874    8.5726 H   0  0  0  0  0  0  0  0  0  0  0  0
    6.2805   20.1034    8.5726 H   0  0  0  0  0  0  0  0  0  0  0  0
   23.0965    3.2874    8.5726 H   0  0  0  0  0  0  0  0  0  0  0  0
   23.0965   20.1034    8.5726 H   0  0  0  0  0  0  0  0  0  0  0  0
   10.5186    3.5067    8.3356 H   0  0  0  0  0  0  0  0  0  0  0  0
   10.5186   20.3227    8.3356 H   0  0  0  0  0  0  0  0  0  0  0  0
   27.3346    3.5067    8.3356 H   0  0  0  0  0  0  0  0  0  0  0  0
   27.3346   20.3227    8.3356 H   0  0  0  0  0  0  0  0  0  0  0  0
   10.6697    1.0989    8.3986 H   0  0  0  0  0  0  0  0  0  0  0  0
   10.6697   17.9149    8.3986 H   0  0  0  0  0  0  0  0  0  0  0  0
   27.4857    1.0989    8.3986 H   0  0  0  0  0  0  0  0  0  0  0  0
   27.4857   17.9149    8.3986 H   0  0  0  0  0  0  0  0  0  0  0  0
   11.2696   16.3986    7.6580 H   0  0  0  0  0  0  0  0  0  0  0  0
   11.2696   -0.4174    7.6580 H   0  0  0  0  0  0  0  0  0  0  0  0
   11.2696   33.2146    7.6580 H   0  0  0  0  0  0  0  0  0  0  0  0
   28.0856   16.3986    7.6580 H   0  0  0  0  0  0  0  0  0  0  0  0
   28.0856   -0.4174    7.6580 H   0  0  0  0  0  0  0  0  0  0  0  0
   28.0856   33.2146    7.6580 H   0  0  0  0  0  0  0  0  0  0  0  0
   11.5143   15.9953    9.2660 H   0  0  0  0  0  0  0  0  0  0  0  0
   11.5143   -0.8207    9.2660 H   0  0  0  0  0  0  0  0  0  0  0  0
   11.5143   32.8113    9.2660 H   0  0  0  0  0  0  0  0  0  0  0  0
   28.3303   15.9953    9.2660 H   0  0  0  0  0  0  0  0  0  0  0  0
   28.3303   -0.8207    9.2660 H   0  0  0  0  0  0  0  0  0  0  0  0
   28.3303   32.8113    9.2660 H   0  0  0  0  0  0  0  0  0  0  0  0
   10.5698   13.3350    8.6030 H   0  0  0  0  0  0  0  0  0  0  0  0
   10.5698   30.1510    8.6030 H   0  0  0  0  0  0  0  0  0  0  0  0
   27.3858   13.3350    8.6030 H   0  0  0  0  0  0  0  0  0  0  0  0
   27.3858   30.1510    8.6030 H   0  0  0  0  0  0  0  0  0  0  0  0
    8.2619    6.3112   13.5626 H   0  0  0  0  0  0  0  0  0  0  0  0
    8.2619   23.1272   13.5626 H   0  0  0  0  0  0  0  0  0  0  0  0
   25.0779    6.3112   13.5626 H   0  0  0  0  0  0  0  0  0  0  0  0
   25.0779   23.1272   13.5626 H   0  0  0  0  0  0  0  0  0  0  0  0
    8.2335    6.4353   15.9610 H   0  0  0  0  0  0  0  0  0  0  0  0
    8.2335   23.2513   15.9610 H   0  0  0  0  0  0  0  0  0  0  0  0
   25.0495    6.4353   15.9610 H   0  0  0  0  0  0  0  0  0  0  0  0
   25.0495   23.2513   15.9610 H   0  0  0  0  0  0  0  0  0  0  0  0
    8.5743    6.4067    0.9285 H   0  0  0  0  0  0  0  0  0  0  0  0
    8.5743   23.2227    0.9285 H   0  0  0  0  0  0  0  0  0  0  0  0
   25.3903    6.4067    0.9285 H   0  0  0  0  0  0  0  0  0  0  0  0
   25.3903   23.2227    0.9285 H   0  0  0  0  0  0  0  0  0  0  0  0
    8.5507    6.3122    3.3391 H   0  0  0  0  0  0  0  0  0  0  0  0
    8.5507   23.1282    3.3391 H   0  0  0  0  0  0  0  0  0  0  0  0
   25.3667    6.3122    3.3391 H   0  0  0  0  0  0  0  0  0  0  0  0
   25.3667   23.1282    3.3391 H   0  0  0  0  0  0  0  0  0  0  0  0
    8.3094   10.5516    3.5391 H   0  0  0  0  0  0  0  0  0  0  0  0
    8.3094   27.3676    3.5391 H   0  0  0  0  0  0  0  0  0  0  0  0
   25.1254   10.5516    3.5391 H   0  0  0  0  0  0  0  0  0  0  0  0
   25.1254   27.3676    3.5391 H   0  0  0  0  0  0  0  0  0  0  0  0
    8.3875   10.6924    1.1336 H   0  0  0  0  0  0  0  0  0  0  0  0
    8.3875   27.5084    1.1336 H   0  0  0  0  0  0  0  0  0  0  0  0
   25.2035   10.6924    1.1336 H   0  0  0  0  0  0  0  0  0  0  0  0
   25.2035   27.5084    1.1336 H   0  0  0  0  0  0  0  0  0  0  0  0
    7.6787   11.2770   16.4390 H   0  0  0  0  0  0  0  0  0  0  0  0
    7.6787   28.0930   16.4390 H   0  0  0  0  0  0  0  0  0  0  0  0
   24.4947   11.2770   16.4390 H   0  0  0  0  0  0  0  0  0  0  0  0
   24.4947   28.0930   16.4390 H   0  0  0  0  0  0  0  0  0  0  0  0
    9.2782   11.5159   16.0019 H   0  0  0  0  0  0  0  0  0  0  0  0
    9.2782   28.3319   16.0019 H   0  0  0  0  0  0  0  0  0  0  0  0
   26.0942   11.5159   16.0019 H   0  0  0  0  0  0  0  0  0  0  0  0
   26.0942   28.3319   16.0019 H   0  0  0  0  0  0  0  0  0  0  0  0
    8.6212   10.5529   13.3614 H   0  0  0  0  0  0  0  0  0  0  0  0
    8.6212   27.3689   13.3614 H   0  0  0  0  0  0  0  0  0  0  0  0
   25.4372   10.5529   13.3614 H   0  0  0  0  0  0  0  0  0  0  0  0
   25.4372   27.3689   13.3614 H   0  0  0  0  0  0  0  0  0  0  0  0
    3.4055   15.3068    0.4034 H   0  0  0  0  0  0  0  0  0  0  0  0
    3.4055   15.3068   17.2194 H   0  0  0  0  0  0  0  0  0  0  0  0
    3.4055   32.1228    0.4034 H   0  0  0  0  0  0  0  0  0  0  0  0
    3.4055   32.1228   17.2194 H   0  0  0  0  0  0  0  0  0  0  0  0
   20.2215   15.3068    0.4034 H   0  0  0  0  0  0  0  0  0  0  0  0
   20.2215   15.3068   17.2194 H   0  0  0  0  0  0  0  0  0  0  0  0
   20.2215   32.1228    0.4034 H   0  0  0  0  0  0  0  0  0  0  0  0
   20.2215   32.1228   17.2194 H   0  0  0  0  0  0  0  0  0  0  0  0
    5.8081   15.3291    0.2981 H   0  0  0  0  0  0  0  0  0  0  0  0
    5.8081   15.3291   17.1141 H   0  0  0  0  0  0  0  0  0  0  0  0
    5.8081   32.1451    0.2981 H   0  0  0  0  0  0  0  0  0  0  0  0
    5.8081   32.1451   17.1141 H   0  0  0  0  0  0  0  0  0  0  0  0
   22.6241   15.3291    0.2981 H   0  0  0  0  0  0  0  0  0  0  0  0
   22.6241   15.3291   17.1141 H   0  0  0  0  0  0  0  0  0  0  0  0
   22.6241   32.1451    0.2981 H   0  0  0  0  0  0  0  0  0  0  0  0
   22.6241   32.1451   17.1141 H   0  0  0  0  0  0  0  0  0  0  0  0
    7.5861   14.9271    0.3368 H   0  0  0  0  0  0  0  0  0  0  0  0
    7.5861   14.9271   17.1528 H   0  0  0  0  0  0  0  0  0  0  0  0
    7.5861   31.7431    0.3368 H   0  0  0  0  0  0  0  0  0  0  0  0
    7.5861   31.7431   17.1528 H   0  0  0  0  0  0  0  0  0  0  0  0
   24.4021   14.9271    0.3368 H   0  0  0  0  0  0  0  0  0  0  0  0
   24.4021   14.9271   17.1528 H   0  0  0  0  0  0  0  0  0  0  0  0
   24.4021   31.7431    0.3368 H   0  0  0  0  0  0  0  0  0  0  0  0
   24.4021   31.7431   17.1528 H   0  0  0  0  0  0  0  0  0  0  0  0
    9.9984   14.9409    0.4511 H   0  0  0  0  0  0  0  0  0  0  0  0
    9.9984   14.9409   17.2671 H   0  0  0  0  0  0  0  0  0  0  0  0
    9.9984   31.7569    0.4511 H   0  0  0  0  0  0  0  0  0  0  0  0
    9.9984   31.7569   17.2671 H   0  0  0  0  0  0  0  0  0  0  0  0
   26.8144   14.9409    0.4511 H   0  0  0  0  0  0  0  0  0  0  0  0
   26.8144   14.9409   17.2671 H   0  0  0  0  0  0  0  0  0  0  0  0
   26.8144   31.7569    0.4511 H   0  0  0  0  0  0  0  0  0  0  0  0
   26.8144   31.7569   17.2671 H   0  0  0  0  0  0  0  0  0  0  0  0
   10.2279   15.1810   13.0277 H   0  0  0  0  0  0  0  0  0  0  0  0
   10.2279   31.9970   13.0277 H   0  0  0  0  0  0  0  0  0  0  0  0
   27.0439   15.1810   13.0277 H   0  0  0  0  0  0  0  0  0  0  0  0
   27.0439   31.9970   13.0277 H   0  0  0  0  0  0  0  0  0  0  0  0
    7.8232   15.1784   12.8698 H   0  0  0  0  0  0  0  0  0  0  0  0
    7.8232   31.9944   12.8698 H   0  0  0  0  0  0  0  0  0  0  0  0
   24.6392   15.1784   12.8698 H   0  0  0  0  0  0  0  0  0  0  0  0
   24.6392   31.9944   12.8698 H   0  0  0  0  0  0  0  0  0  0  0  0
    6.2338   15.9016   12.2405 H   0  0  0  0  0  0  0  0  0  0  0  0
    6.2338   32.7176   12.2405 H   0  0  0  0  0  0  0  0  0  0  0  0
   23.0498   15.9016   12.2405 H   0  0  0  0  0  0  0  0  0  0  0  0
   23.0498   32.7176   12.2405 H   0  0  0  0  0  0  0  0  0  0  0  0
    6.0326   14.2524   12.1124 H   0  0  0  0  0  0  0  0  0  0  0  0
    6.0326   31.0684   12.1124 H   0  0  0  0  0  0  0  0  0  0  0  0
   22.8486   14.2524   12.1124 H   0  0  0  0  0  0  0  0  0  0  0  0
   22.8486   31.0684   12.1124 H   0  0  0  0  0  0  0  0  0  0  0  0
    3.2390   14.9467   12.9781 H   0  0  0  0  0  0  0  0  0  0  0  0
    3.2390   31.7627   12.9781 H   0  0  0  0  0  0  0  0  0  0  0  0
   20.0550   14.9467   12.9781 H   0  0  0  0  0  0  0  0  0  0  0  0
   20.0550   31.7627   12.9781 H   0  0  0  0  0  0  0  0  0  0  0  0
   13.0293    3.3935   14.9637 H   0  0  0  0  0  0  0  0  0  0  0  0
   13.0293   20.2095   14.9637 H   0  0  0  0  0  0  0  0  0  0  0  0
   29.8453    3.3935   14.9637 H   0  0  0  0  0  0  0  0  0  0  0  0
   29.8453   20.2095   14.9637 H   0  0  0  0  0  0  0  0  0  0  0  0
   13.1251    5.7978   14.9220 H   0  0  0  0  0  0  0  0  0  0  0  0
   13.1251   22.6138   14.9220 H   0  0  0  0  0  0  0  0  0  0  0  0
   29.9411    5.7978   14.9220 H   0  0  0  0  0  0  0  0  0  0  0  0
   29.9411   22.6138   14.9220 H   0  0  0  0  0  0  0  0  0  0  0  0
   13.0840    7.5944   15.2720 H   0  0  0  0  0  0  0  0  0  0  0  0
   13.0840   24.4104   15.2720 H   0  0  0  0  0  0  0  0  0  0  0  0
   29.9000    7.5944   15.2720 H   0  0  0  0  0  0  0  0  0  0  0  0
   29.9000   24.4104   15.2720 H   0  0  0  0  0  0  0  0  0  0  0  0
   12.9838   10.0047   15.2583 H   0  0  0  0  0  0  0  0  0  0  0  0
   12.9838   26.8207   15.2583 H   0  0  0  0  0  0  0  0  0  0  0  0
   29.7998   10.0047   15.2583 H   0  0  0  0  0  0  0  0  0  0  0  0
   29.7998   26.8207   15.2583 H   0  0  0  0  0  0  0  0  0  0  0  0
    0.4062   10.2165   14.9783 H   0  0  0  0  0  0  0  0  0  0  0  0
   34.0382   10.2165   14.9783 H   0  0  0  0  0  0  0  0  0  0  0  0
    0.4062   27.0325   14.9783 H   0  0  0  0  0  0  0  0  0  0  0  0
   34.0382   27.0325   14.9783 H   0  0  0  0  0  0  0  0  0  0  0  0
   17.2222   10.2165   14.9783 H   0  0  0  0  0  0  0  0  0  0  0  0
   17.2222   27.0325   14.9783 H   0  0  0  0  0  0  0  0  0  0  0  0
    0.5492    7.8058   14.9624 H   0  0  0  0  0  0  0  0  0  0  0  0
   34.1812    7.8058   14.9624 H   0  0  0  0  0  0  0  0  0  0  0  0
    0.5492   24.6218   14.9624 H   0  0  0  0  0  0  0  0  0  0  0  0
   34.1812   24.6218   14.9624 H   0  0  0  0  0  0  0  0  0  0  0  0
   17.3652    7.8058   14.9624 H   0  0  0  0  0  0  0  0  0  0  0  0
   17.3652   24.6218   14.9624 H   0  0  0  0  0  0  0  0  0  0  0  0
    1.2414    6.1428   14.3386 H   0  0  0  0  0  0  0  0  0  0  0  0
   34.8734    6.1428   14.3386 H   0  0  0  0  0  0  0  0  0  0  0  0
    1.2414   22.9588   14.3386 H   0  0  0  0  0  0  0  0  0  0  0  0
   34.8734   22.9588   14.3386 H   0  0  0  0  0  0  0  0  0  0  0  0
   18.0574    6.1428   14.3386 H   0  0  0  0  0  0  0  0  0  0  0  0
   18.0574   22.9588   14.3386 H   0  0  0  0  0  0  0  0  0  0  0  0
    1.2477    6.1426   16.0049 H   0  0  0  0  0  0  0  0  0  0  0  0
   34.8797    6.1426   16.0049 H   0  0  0  0  0  0  0  0  0  0  0  0
    1.2477   22.9586   16.0049 H   0  0  0  0  0  0  0  0  0  0  0  0
   34.8797   22.9586   16.0049 H   0  0  0  0  0  0  0  0  0  0  0  0
   18.0637    6.1426   16.0049 H   0  0  0  0  0  0  0  0  0  0  0  0
   18.0637   22.9586   16.0049 H   0  0  0  0  0  0  0  0  0  0  0  0
    0.4597    3.2436   15.2909 H   0  0  0  0  0  0  0  0  0  0  0  0
   34.0917    3.2436   15.2909 H   0  0  0  0  0  0  0  0  0  0  0  0
    0.4597   20.0596   15.2909 H   0  0  0  0  0  0  0  0  0  0  0  0
   34.0917   20.0596   15.2909 H   0  0  0  0  0  0  0  0  0  0  0  0
   17.2757    3.2436   15.2909 H   0  0  0  0  0  0  0  0  0  0  0  0
   17.2757   20.0596   15.2909 H   0  0  0  0  0  0  0  0  0  0  0  0
   14.9420   13.0173    3.4560 H   0  0  0  0  0  0  0  0  0  0  0  0
   14.9420   29.8333    3.4560 H   0  0  0  0  0  0  0  0  0  0  0  0
   31.7580   13.0173    3.4560 H   0  0  0  0  0  0  0  0  0  0  0  0
   31.7580   29.8333    3.4560 H   0  0  0  0  0  0  0  0  0  0  0  0
   14.8806   13.1348    5.8571 H   0  0  0  0  0  0  0  0  0  0  0  0
   14.8806   29.9508    5.8571 H   0  0  0  0  0  0  0  0  0  0  0  0
   31.6966   13.1348    5.8571 H   0  0  0  0  0  0  0  0  0  0  0  0
   31.6966   29.9508    5.8571 H   0  0  0  0  0  0  0  0  0  0  0  0
   15.2457   13.1035    7.6471 H   0  0  0  0  0  0  0  0  0  0  0  0
   15.2457   29.9195    7.6471 H   0  0  0  0  0  0  0  0  0  0  0  0
   32.0617   13.1035    7.6471 H   0  0  0  0  0  0  0  0  0  0  0  0
   32.0617   29.9195    7.6471 H   0  0  0  0  0  0  0  0  0  0  0  0
   15.2182   13.0131   10.0573 H   0  0  0  0  0  0  0  0  0  0  0  0
   15.2182   29.8291   10.0573 H   0  0  0  0  0  0  0  0  0  0  0  0
   32.0342   13.0131   10.0573 H   0  0  0  0  0  0  0  0  0  0  0  0
   32.0342   29.8291   10.0573 H   0  0  0  0  0  0  0  0  0  0  0  0
   14.9406    0.4364   10.2500 H   0  0  0  0  0  0  0  0  0  0  0  0
   14.9406   34.0684   10.2500 H   0  0  0  0  0  0  0  0  0  0  0  0
   14.9406   17.2524   10.2500 H   0  0  0  0  0  0  0  0  0  0  0  0
   31.7566    0.4364   10.2500 H   0  0  0  0  0  0  0  0  0  0  0  0
   31.7566   34.0684   10.2500 H   0  0  0  0  0  0  0  0  0  0  0  0
   31.7566   17.2524   10.2500 H   0  0  0  0  0  0  0  0  0  0  0  0
   14.9567    0.5700    7.8402 H   0  0  0  0  0  0  0  0  0  0  0  0
   14.9567   34.2020    7.8402 H   0  0  0  0  0  0  0  0  0  0  0  0
   14.9567   17.3860    7.8402 H   0  0  0  0  0  0  0  0  0  0  0  0
   31.7727    0.5700    7.8402 H   0  0  0  0  0  0  0  0  0  0  0  0
   31.7727   34.2020    7.8402 H   0  0  0  0  0  0  0  0  0  0  0  0
   31.7727   17.3860    7.8402 H   0  0  0  0  0  0  0  0  0  0  0  0
   14.3498    1.2366    6.1969 H   0  0  0  0  0  0  0  0  0  0  0  0
   14.3498   34.8686    6.1969 H   0  0  0  0  0  0  0  0  0  0  0  0
   14.3498   18.0526    6.1969 H   0  0  0  0  0  0  0  0  0  0  0  0
   31.1658    1.2366    6.1969 H   0  0  0  0  0  0  0  0  0  0  0  0
   31.1658   34.8686    6.1969 H   0  0  0  0  0  0  0  0  0  0  0  0
   31.1658   18.0526    6.1969 H   0  0  0  0  0  0  0  0  0  0  0  0
   16.0150    1.2584    6.1424 H   0  0  0  0  0  0  0  0  0  0  0  0
   16.0150   34.8904    6.1424 H   0  0  0  0  0  0  0  0  0  0  0  0
   16.0150   18.0744    6.1424 H   0  0  0  0  0  0  0  0  0  0  0  0
   32.8310    1.2584    6.1424 H   0  0  0  0  0  0  0  0  0  0  0  0
   32.8310   34.8904    6.1424 H   0  0  0  0  0  0  0  0  0  0  0  0
   32.8310   18.0744    6.1424 H   0  0  0  0  0  0  0  0  0  0  0  0
   15.3103    0.4429    3.2707 H   0  0  0  0  0  0  0  0  0  0  0  0
   15.3103   34.0749    3.2707 H   0  0  0  0  0  0  0  0  0  0  0  0
   15.3103   17.2589    3.2707 H   0  0  0  0  0  0  0  0  0  0  0  0
   32.1263    0.4429    3.2707 H   0  0  0  0  0  0  0  0  0  0  0  0
   32.1263   34.0749    3.2707 H   0  0  0  0  0  0  0  0  0  0  0  0
   32.1263   17.2589    3.2707 H   0  0  0  0  0  0  0  0  0  0  0  0
   11.7809    8.3762    8.4462 C   0  0  0  0  0  0  0  0  0  0  0  0
   11.7809   25.1922    8.4462 C   0  0  0  0  0  0  0  0  0  0  0  0
   28.5969    8.3762    8.4462 C   0  0  0  0  0  0  0  0  0  0  0  0
   28.5969   25.1922    8.4462 C   0  0  0  0  0  0  0  0  0  0  0  0
   13.2584    8.3792    8.4125 C   0  0  0  0  0  0  0  0  0  0  0  0
   13.2584   25.1952    8.4125 C   0  0  0  0  0  0  0  0  0  0  0  0
   30.0744    8.3792    8.4125 C   0  0  0  0  0  0  0  0  0  0  0  0
   30.0744   25.1952    8.4125 C   0  0  0  0  0  0  0  0  0  0  0  0
   14.0087    8.5187    9.5731 C   0  0  0  0  0  0  0  0  0  0  0  0
   14.0087   25.3347    9.5731 C   0  0  0  0  0  0  0  0  0  0  0  0
   30.8247    8.5187    9.5731 C   0  0  0  0  0  0  0  0  0  0  0  0
   30.8247   25.3347    9.5731 C   0  0  0  0  0  0  0  0  0  0  0  0
   15.3804    8.5428    9.4889 C   0  0  0  0  0  0  0  0  0  0  0  0
   15.3804   25.3588    9.4889 C   0  0  0  0  0  0  0  0  0  0  0  0
   32.1964    8.5428    9.4889 C   0  0  0  0  0  0  0  0  0  0  0  0
   32.1964   25.3588    9.4889 C   0  0  0  0  0  0  0  0  0  0  0  0
   16.0808    8.4651    8.2708 C   0  0  0  0  0  0  0  0  0  0  0  0
   16.0808   25.2811    8.2708 C   0  0  0  0  0  0  0  0  0  0  0  0
   -0.7352    8.4651    8.2708 C   0  0  0  0  0  0  0  0  0  0  0  0
   32.8968    8.4651    8.2708 C   0  0  0  0  0  0  0  0  0  0  0  0
   -0.7352   25.2811    8.2708 C   0  0  0  0  0  0  0  0  0  0  0  0
   32.8968   25.2811    8.2708 C   0  0  0  0  0  0  0  0  0  0  0  0
    0.7414    8.4451    8.3037 C   0  0  0  0  0  0  0  0  0  0  0  0
   34.3734    8.4451    8.3037 C   0  0  0  0  0  0  0  0  0  0  0  0
    0.7414   25.2611    8.3037 C   0  0  0  0  0  0  0  0  0  0  0  0
   34.3734   25.2611    8.3037 C   0  0  0  0  0  0  0  0  0  0  0  0
   17.5574    8.4451    8.3037 C   0  0  0  0  0  0  0  0  0  0  0  0
   17.5574   25.2611    8.3037 C   0  0  0  0  0  0  0  0  0  0  0  0
    1.4237    8.3535    9.5275 C   0  0  0  0  0  0  0  0  0  0  0  0
    1.4237   25.1695    9.5275 C   0  0  0  0  0  0  0  0  0  0  0  0
   18.2397    8.3535    9.5275 C   0  0  0  0  0  0  0  0  0  0  0  0
   18.2397   25.1695    9.5275 C   0  0  0  0  0  0  0  0  0  0  0  0
    2.7980    8.3337    9.6030 C   0  0  0  0  0  0  0  0  0  0  0  0
    2.7980   25.1497    9.6030 C   0  0  0  0  0  0  0  0  0  0  0  0
   19.6140    8.3337    9.6030 C   0  0  0  0  0  0  0  0  0  0  0  0
   19.6140   25.1497    9.6030 C   0  0  0  0  0  0  0  0  0  0  0  0
    3.5611    8.4064    8.4440 C   0  0  0  0  0  0  0  0  0  0  0  0
    3.5611   25.2224    8.4440 C   0  0  0  0  0  0  0  0  0  0  0  0
   20.3771    8.4064    8.4440 C   0  0  0  0  0  0  0  0  0  0  0  0
   20.3771   25.2224    8.4440 C   0  0  0  0  0  0  0  0  0  0  0  0
    5.0388    8.4102    8.4894 C   0  0  0  0  0  0  0  0  0  0  0  0
    5.0388   25.2262    8.4894 C   0  0  0  0  0  0  0  0  0  0  0  0
   21.8548    8.4102    8.4894 C   0  0  0  0  0  0  0  0  0  0  0  0
   21.8548   25.2262    8.4894 C   0  0  0  0  0  0  0  0  0  0  0  0
    2.9155    8.4742    7.2170 C   0  0  0  0  0  0  0  0  0  0  0  0
    2.9155   25.2902    7.2170 C   0  0  0  0  0  0  0  0  0  0  0  0
   19.7315    8.4742    7.2170 C   0  0  0  0  0  0  0  0  0  0  0  0
   19.7315   25.2902    7.2170 C   0  0  0  0  0  0  0  0  0  0  0  0
    1.5387    8.4820    7.1527 C   0  0  0  0  0  0  0  0  0  0  0  0
    1.5387   25.2980    7.1527 C   0  0  0  0  0  0  0  0  0  0  0  0
   18.3547    8.4820    7.1527 C   0  0  0  0  0  0  0  0  0  0  0  0
   18.3547   25.2980    7.1527 C   0  0  0  0  0  0  0  0  0  0  0  0
   15.2954    8.3946    7.0933 C   0  0  0  0  0  0  0  0  0  0  0  0
   15.2954   25.2106    7.0933 C   0  0  0  0  0  0  0  0  0  0  0  0
   32.1114    8.3946    7.0933 C   0  0  0  0  0  0  0  0  0  0  0  0
   32.1114   25.2106    7.0933 C   0  0  0  0  0  0  0  0  0  0  0  0
   13.9129    8.3135    7.1960 C   0  0  0  0  0  0  0  0  0  0  0  0
   13.9129   25.1295    7.1960 C   0  0  0  0  0  0  0  0  0  0  0  0
   30.7289    8.3135    7.1960 C   0  0  0  0  0  0  0  0  0  0  0  0
   30.7289   25.1295    7.1960 C   0  0  0  0  0  0  0  0  0  0  0  0
    8.4109   11.7739    8.4539 C   0  0  0  0  0  0  0  0  0  0  0  0
    8.4109   28.5899    8.4539 C   0  0  0  0  0  0  0  0  0  0  0  0
   25.2269   11.7739    8.4539 C   0  0  0  0  0  0  0  0  0  0  0  0
   25.2269   28.5899    8.4539 C   0  0  0  0  0  0  0  0  0  0  0  0
    8.4395   13.2502    8.4938 C   0  0  0  0  0  0  0  0  0  0  0  0
    8.4395   30.0662    8.4938 C   0  0  0  0  0  0  0  0  0  0  0  0
   25.2555   13.2502    8.4938 C   0  0  0  0  0  0  0  0  0  0  0  0
   25.2555   30.0662    8.4938 C   0  0  0  0  0  0  0  0  0  0  0  0
    7.2749   13.9999    8.3848 C   0  0  0  0  0  0  0  0  0  0  0  0
    7.2749   30.8159    8.3848 C   0  0  0  0  0  0  0  0  0  0  0  0
   24.0909   13.9999    8.3848 C   0  0  0  0  0  0  0  0  0  0  0  0
   24.0909   30.8159    8.3848 C   0  0  0  0  0  0  0  0  0  0  0  0
    7.3587   15.3714    8.3759 C   0  0  0  0  0  0  0  0  0  0  0  0
    7.3587   32.1874    8.3759 C   0  0  0  0  0  0  0  0  0  0  0  0
   24.1747   15.3714    8.3759 C   0  0  0  0  0  0  0  0  0  0  0  0
   24.1747   32.1874    8.3759 C   0  0  0  0  0  0  0  0  0  0  0  0
    8.5777   16.0729    8.4237 C   0  0  0  0  0  0  0  0  0  0  0  0
    8.5777   -0.7431    8.4237 C   0  0  0  0  0  0  0  0  0  0  0  0
    8.5777   32.8889    8.4237 C   0  0  0  0  0  0  0  0  0  0  0  0
   25.3937   16.0729    8.4237 C   0  0  0  0  0  0  0  0  0  0  0  0
   25.3937   -0.7431    8.4237 C   0  0  0  0  0  0  0  0  0  0  0  0
   25.3937   32.8889    8.4237 C   0  0  0  0  0  0  0  0  0  0  0  0
    8.5392    0.7336    8.4350 C   0  0  0  0  0  0  0  0  0  0  0  0
    8.5392   34.3656    8.4350 C   0  0  0  0  0  0  0  0  0  0  0  0
    8.5392   17.5496    8.4350 C   0  0  0  0  0  0  0  0  0  0  0  0
   25.3552    0.7336    8.4350 C   0  0  0  0  0  0  0  0  0  0  0  0
   25.3552   34.3656    8.4350 C   0  0  0  0  0  0  0  0  0  0  0  0
   25.3552   17.5496    8.4350 C   0  0  0  0  0  0  0  0  0  0  0  0
    7.3138    1.4156    8.5143 C   0  0  0  0  0  0  0  0  0  0  0  0
    7.3138   18.2316    8.5143 C   0  0  0  0  0  0  0  0  0  0  0  0
   24.1298    1.4156    8.5143 C   0  0  0  0  0  0  0  0  0  0  0  0
   24.1298   18.2316    8.5143 C   0  0  0  0  0  0  0  0  0  0  0  0
    7.2363    2.7905    8.5190 C   0  0  0  0  0  0  0  0  0  0  0  0
    7.2363   19.6065    8.5190 C   0  0  0  0  0  0  0  0  0  0  0  0
   24.0523    2.7905    8.5190 C   0  0  0  0  0  0  0  0  0  0  0  0
   24.0523   19.6065    8.5190 C   0  0  0  0  0  0  0  0  0  0  0  0
    8.3935    3.5549    8.4344 C   0  0  0  0  0  0  0  0  0  0  0  0
    8.3935   20.3709    8.4344 C   0  0  0  0  0  0  0  0  0  0  0  0
   25.2095    3.5549    8.4344 C   0  0  0  0  0  0  0  0  0  0  0  0
   25.2095   20.3709    8.4344 C   0  0  0  0  0  0  0  0  0  0  0  0
    8.3578    5.0332    8.4366 C   0  0  0  0  0  0  0  0  0  0  0  0
    8.3578   21.8492    8.4366 C   0  0  0  0  0  0  0  0  0  0  0  0
   25.1738    5.0332    8.4366 C   0  0  0  0  0  0  0  0  0  0  0  0
   25.1738   21.8492    8.4366 C   0  0  0  0  0  0  0  0  0  0  0  0
    9.6215    2.9093    8.3839 C   0  0  0  0  0  0  0  0  0  0  0  0
    9.6215   19.7253    8.3839 C   0  0  0  0  0  0  0  0  0  0  0  0
   26.4375    2.9093    8.3839 C   0  0  0  0  0  0  0  0  0  0  0  0
   26.4375   19.7253    8.3839 C   0  0  0  0  0  0  0  0  0  0  0  0
    9.6885    1.5333    8.4008 C   0  0  0  0  0  0  0  0  0  0  0  0
    9.6885   18.3493    8.4008 C   0  0  0  0  0  0  0  0  0  0  0  0
   26.5045    1.5333    8.4008 C   0  0  0  0  0  0  0  0  0  0  0  0
   26.5045   18.3493    8.4008 C   0  0  0  0  0  0  0  0  0  0  0  0
    9.7575   15.2886    8.4726 C   0  0  0  0  0  0  0  0  0  0  0  0
    9.7575   32.1046    8.4726 C   0  0  0  0  0  0  0  0  0  0  0  0
   26.5735   15.2886    8.4726 C   0  0  0  0  0  0  0  0  0  0  0  0
   26.5735   32.1046    8.4726 C   0  0  0  0  0  0  0  0  0  0  0  0
    9.6557   13.9048    8.5519 C   0  0  0  0  0  0  0  0  0  0  0  0
    9.6557   30.7208    8.5519 C   0  0  0  0  0  0  0  0  0  0  0  0
   26.4717   13.9048    8.5519 C   0  0  0  0  0  0  0  0  0  0  0  0
   26.4717   30.7208    8.5519 C   0  0  0  0  0  0  0  0  0  0  0  0
    8.4574    8.3824   11.8148 C   0  0  0  0  0  0  0  0  0  0  0  0
    8.4574   25.1984   11.8148 C   0  0  0  0  0  0  0  0  0  0  0  0
   25.2734    8.3824   11.8148 C   0  0  0  0  0  0  0  0  0  0  0  0
   25.2734   25.1984   11.8148 C   0  0  0  0  0  0  0  0  0  0  0  0
    8.4838    8.4238   13.2920 C   0  0  0  0  0  0  0  0  0  0  0  0
    8.4838   25.2398   13.2920 C   0  0  0  0  0  0  0  0  0  0  0  0
   25.2998    8.4238   13.2920 C   0  0  0  0  0  0  0  0  0  0  0  0
   25.2998   25.2398   13.2920 C   0  0  0  0  0  0  0  0  0  0  0  0
    8.3474    7.2682   14.0519 C   0  0  0  0  0  0  0  0  0  0  0  0
    8.3474   24.0842   14.0519 C   0  0  0  0  0  0  0  0  0  0  0  0
   25.1634    7.2682   14.0519 C   0  0  0  0  0  0  0  0  0  0  0  0
   25.1634   24.0842   14.0519 C   0  0  0  0  0  0  0  0  0  0  0  0
    8.3315    7.3632   15.4224 C   0  0  0  0  0  0  0  0  0  0  0  0
    8.3315   24.1792   15.4224 C   0  0  0  0  0  0  0  0  0  0  0  0
   25.1475    7.3632   15.4224 C   0  0  0  0  0  0  0  0  0  0  0  0
   25.1475   24.1792   15.4224 C   0  0  0  0  0  0  0  0  0  0  0  0
    8.3996    8.5866   16.1148 C   0  0  0  0  0  0  0  0  0  0  0  0
    8.3996   25.4026   16.1148 C   0  0  0  0  0  0  0  0  0  0  0  0
   25.2156    8.5866   16.1148 C   0  0  0  0  0  0  0  0  0  0  0  0
   25.2156   25.4026   16.1148 C   0  0  0  0  0  0  0  0  0  0  0  0
    8.4127    8.5591    0.7754 C   0  0  0  0  0  0  0  0  0  0  0  0
    8.4127   25.3751    0.7754 C   0  0  0  0  0  0  0  0  0  0  0  0
   25.2287    8.5591    0.7754 C   0  0  0  0  0  0  0  0  0  0  0  0
   25.2287   25.3751    0.7754 C   0  0  0  0  0  0  0  0  0  0  0  0
    8.4954    7.3371    1.4627 C   0  0  0  0  0  0  0  0  0  0  0  0
    8.4954   24.1531    1.4627 C   0  0  0  0  0  0  0  0  0  0  0  0
   25.3114    7.3371    1.4627 C   0  0  0  0  0  0  0  0  0  0  0  0
   25.3114   24.1531    1.4627 C   0  0  0  0  0  0  0  0  0  0  0  0
    8.4984    7.2655    2.8374 C   0  0  0  0  0  0  0  0  0  0  0  0
    8.4984   24.0815    2.8374 C   0  0  0  0  0  0  0  0  0  0  0  0
   25.3144    7.2655    2.8374 C   0  0  0  0  0  0  0  0  0  0  0  0
   25.3144   24.0815    2.8374 C   0  0  0  0  0  0  0  0  0  0  0  0
    8.4081    8.4264    3.5952 C   0  0  0  0  0  0  0  0  0  0  0  0
    8.4081   25.2424    3.5952 C   0  0  0  0  0  0  0  0  0  0  0  0
   25.2241    8.4264    3.5952 C   0  0  0  0  0  0  0  0  0  0  0  0
   25.2241   25.2424    3.5952 C   0  0  0  0  0  0  0  0  0  0  0  0
    8.4043    8.3913    5.0717 C   0  0  0  0  0  0  0  0  0  0  0  0
    8.4043   25.2073    5.0717 C   0  0  0  0  0  0  0  0  0  0  0  0
   25.2203    8.3913    5.0717 C   0  0  0  0  0  0  0  0  0  0  0  0
   25.2203   25.2073    5.0717 C   0  0  0  0  0  0  0  0  0  0  0  0
    8.3603    9.6518    2.9461 C   0  0  0  0  0  0  0  0  0  0  0  0
    8.3603   26.4678    2.9461 C   0  0  0  0  0  0  0  0  0  0  0  0
   25.1763    9.6518    2.9461 C   0  0  0  0  0  0  0  0  0  0  0  0
   25.1763   26.4678    2.9461 C   0  0  0  0  0  0  0  0  0  0  0  0
    8.3814    9.7122    1.5698 C   0  0  0  0  0  0  0  0  0  0  0  0
    8.3814   26.5282    1.5698 C   0  0  0  0  0  0  0  0  0  0  0  0
   25.1974    9.7122    1.5698 C   0  0  0  0  0  0  0  0  0  0  0  0
   25.1974   26.5282    1.5698 C   0  0  0  0  0  0  0  0  0  0  0  0
    8.4683    9.7592   15.3217 C   0  0  0  0  0  0  0  0  0  0  0  0
    8.4683   26.5752   15.3217 C   0  0  0  0  0  0  0  0  0  0  0  0
   25.2843    9.7592   15.3217 C   0  0  0  0  0  0  0  0  0  0  0  0
   25.2843   26.5752   15.3217 C   0  0  0  0  0  0  0  0  0  0  0  0
    8.5548    9.6446   13.9390 C   0  0  0  0  0  0  0  0  0  0  0  0
    8.5548   26.4606   13.9390 C   0  0  0  0  0  0  0  0  0  0  0  0
   25.3708    9.6446   13.9390 C   0  0  0  0  0  0  0  0  0  0  0  0
   25.3708   26.4606   13.9390 C   0  0  0  0  0  0  0  0  0  0  0  0
    1.6752   15.0983   15.1445 C   0  0  0  0  0  0  0  0  0  0  0  0
    1.6752   31.9143   15.1445 C   0  0  0  0  0  0  0  0  0  0  0  0
   18.4912   15.0983   15.1445 C   0  0  0  0  0  0  0  0  0  0  0  0
   18.4912   31.9143   15.1445 C   0  0  0  0  0  0  0  0  0  0  0  0
    3.1525   15.0844   15.1070 C   0  0  0  0  0  0  0  0  0  0  0  0
    3.1525   31.9004   15.1070 C   0  0  0  0  0  0  0  0  0  0  0  0
   19.9685   15.0844   15.1070 C   0  0  0  0  0  0  0  0  0  0  0  0
   19.9685   31.9004   15.1070 C   0  0  0  0  0  0  0  0  0  0  0  0
    3.9037   15.2133   -0.5481 C   0  0  0  0  0  0  0  0  0  0  0  0
    3.9037   15.2133   16.2679 C   0  0  0  0  0  0  0  0  0  0  0  0
    3.9037   32.0293   -0.5481 C   0  0  0  0  0  0  0  0  0  0  0  0
    3.9037   32.0293   16.2679 C   0  0  0  0  0  0  0  0  0  0  0  0
   20.7197   15.2133   -0.5481 C   0  0  0  0  0  0  0  0  0  0  0  0
   20.7197   15.2133   16.2679 C   0  0  0  0  0  0  0  0  0  0  0  0
   20.7197   32.0293   -0.5481 C   0  0  0  0  0  0  0  0  0  0  0  0
   20.7197   32.0293   16.2679 C   0  0  0  0  0  0  0  0  0  0  0  0
    5.2754   15.2202   -0.6321 C   0  0  0  0  0  0  0  0  0  0  0  0
    5.2754   15.2202   16.1839 C   0  0  0  0  0  0  0  0  0  0  0  0
    5.2754   32.0362   -0.6321 C   0  0  0  0  0  0  0  0  0  0  0  0
    5.2754   32.0362   16.1839 C   0  0  0  0  0  0  0  0  0  0  0  0
   22.0914   15.2202   -0.6321 C   0  0  0  0  0  0  0  0  0  0  0  0
   22.0914   15.2202   16.1839 C   0  0  0  0  0  0  0  0  0  0  0  0
   22.0914   32.0362   -0.6321 C   0  0  0  0  0  0  0  0  0  0  0  0
   22.0914   32.0362   16.1839 C   0  0  0  0  0  0  0  0  0  0  0  0
    5.9761   15.1338   14.9667 C   0  0  0  0  0  0  0  0  0  0  0  0
    5.9761   31.9498   14.9667 C   0  0  0  0  0  0  0  0  0  0  0  0
   22.7921   15.1338   14.9667 C   0  0  0  0  0  0  0  0  0  0  0  0
   22.7921   31.9498   14.9667 C   0  0  0  0  0  0  0  0  0  0  0  0
    7.4519   15.1024   15.0023 C   0  0  0  0  0  0  0  0  0  0  0  0
    7.4519   31.9184   15.0023 C   0  0  0  0  0  0  0  0  0  0  0  0
   24.2679   15.1024   15.0023 C   0  0  0  0  0  0  0  0  0  0  0  0
   24.2679   31.9184   15.0023 C   0  0  0  0  0  0  0  0  0  0  0  0
    8.1301   15.0049   -0.5881 C   0  0  0  0  0  0  0  0  0  0  0  0
    8.1301   15.0049   16.2279 C   0  0  0  0  0  0  0  0  0  0  0  0
    8.1301   31.8209   -0.5881 C   0  0  0  0  0  0  0  0  0  0  0  0
    8.1301   31.8209   16.2279 C   0  0  0  0  0  0  0  0  0  0  0  0
   24.9461   15.0049   -0.5881 C   0  0  0  0  0  0  0  0  0  0  0  0
   24.9461   15.0049   16.2279 C   0  0  0  0  0  0  0  0  0  0  0  0
   24.9461   31.8209   -0.5881 C   0  0  0  0  0  0  0  0  0  0  0  0
   24.9461   31.8209   16.2279 C   0  0  0  0  0  0  0  0  0  0  0  0
    9.5039   14.9928   -0.5065 C   0  0  0  0  0  0  0  0  0  0  0  0
    9.5039   14.9928   16.3095 C   0  0  0  0  0  0  0  0  0  0  0  0
    9.5039   31.8088   -0.5065 C   0  0  0  0  0  0  0  0  0  0  0  0
    9.5039   31.8088   16.3095 C   0  0  0  0  0  0  0  0  0  0  0  0
   26.3199   14.9928   -0.5065 C   0  0  0  0  0  0  0  0  0  0  0  0
   26.3199   14.9928   16.3095 C   0  0  0  0  0  0  0  0  0  0  0  0
   26.3199   31.8088   -0.5065 C   0  0  0  0  0  0  0  0  0  0  0  0
   26.3199   31.8088   16.3095 C   0  0  0  0  0  0  0  0  0  0  0  0
   10.2701   15.0727   15.1530 C   0  0  0  0  0  0  0  0  0  0  0  0
   10.2701   31.8887   15.1530 C   0  0  0  0  0  0  0  0  0  0  0  0
   27.0861   15.0727   15.1530 C   0  0  0  0  0  0  0  0  0  0  0  0
   27.0861   31.8887   15.1530 C   0  0  0  0  0  0  0  0  0  0  0  0
   11.7468   15.0947   15.2082 C   0  0  0  0  0  0  0  0  0  0  0  0
   11.7468   31.9107   15.2082 C   0  0  0  0  0  0  0  0  0  0  0  0
   28.5628   15.0947   15.2082 C   0  0  0  0  0  0  0  0  0  0  0  0
   28.5628   31.9107   15.2082 C   0  0  0  0  0  0  0  0  0  0  0  0
    9.6285   15.1376   13.9237 C   0  0  0  0  0  0  0  0  0  0  0  0
    9.6285   31.9536   13.9237 C   0  0  0  0  0  0  0  0  0  0  0  0
   26.4445   15.1376   13.9237 C   0  0  0  0  0  0  0  0  0  0  0  0
   26.4445   31.9536   13.9237 C   0  0  0  0  0  0  0  0  0  0  0  0
    8.2520   15.1445   13.8536 C   0  0  0  0  0  0  0  0  0  0  0  0
    8.2520   31.9605   13.8536 C   0  0  0  0  0  0  0  0  0  0  0  0
   25.0680   15.1445   13.8536 C   0  0  0  0  0  0  0  0  0  0  0  0
   25.0680   31.9605   13.8536 C   0  0  0  0  0  0  0  0  0  0  0  0
    5.1916   15.0765   13.7882 C   0  0  0  0  0  0  0  0  0  0  0  0
    5.1916   31.8925   13.7882 C   0  0  0  0  0  0  0  0  0  0  0  0
   22.0076   15.0765   13.7882 C   0  0  0  0  0  0  0  0  0  0  0  0
   22.0076   31.8925   13.7882 C   0  0  0  0  0  0  0  0  0  0  0  0
    3.8084   15.0135   13.8909 C   0  0  0  0  0  0  0  0  0  0  0  0
    3.8084   31.8295   13.8909 C   0  0  0  0  0  0  0  0  0  0  0  0
   20.6244   15.0135   13.8909 C   0  0  0  0  0  0  0  0  0  0  0  0
   20.6244   31.8295   13.8909 C   0  0  0  0  0  0  0  0  0  0  0  0
   15.1165    1.6711   15.1382 C   0  0  0  0  0  0  0  0  0  0  0  0
   15.1165   18.4871   15.1382 C   0  0  0  0  0  0  0  0  0  0  0  0
   31.9325    1.6711   15.1382 C   0  0  0  0  0  0  0  0  0  0  0  0
   31.9325   18.4871   15.1382 C   0  0  0  0  0  0  0  0  0  0  0  0
   15.1460    3.1481   15.1468 C   0  0  0  0  0  0  0  0  0  0  0  0
   15.1460   19.9641   15.1468 C   0  0  0  0  0  0  0  0  0  0  0  0
   31.9620    3.1481   15.1468 C   0  0  0  0  0  0  0  0  0  0  0  0
   31.9620   19.9641   15.1468 C   0  0  0  0  0  0  0  0  0  0  0  0
   13.9813    3.8954   15.0298 C   0  0  0  0  0  0  0  0  0  0  0  0
   13.9813   20.7114   15.0298 C   0  0  0  0  0  0  0  0  0  0  0  0
   30.7973    3.8954   15.0298 C   0  0  0  0  0  0  0  0  0  0  0  0
   30.7973   20.7114   15.0298 C   0  0  0  0  0  0  0  0  0  0  0  0
   14.0590    5.2680   15.0162 C   0  0  0  0  0  0  0  0  0  0  0  0
   14.0590   22.0840   15.0162 C   0  0  0  0  0  0  0  0  0  0  0  0
   30.8750    5.2680   15.0162 C   0  0  0  0  0  0  0  0  0  0  0  0
   30.8750   22.0840   15.0162 C   0  0  0  0  0  0  0  0  0  0  0  0
   15.2746    5.9718   15.0905 C   0  0  0  0  0  0  0  0  0  0  0  0
   15.2746   22.7878   15.0905 C   0  0  0  0  0  0  0  0  0  0  0  0
   32.0906    5.9718   15.0905 C   0  0  0  0  0  0  0  0  0  0  0  0
   32.0906   22.7878   15.0905 C   0  0  0  0  0  0  0  0  0  0  0  0
   15.2361    7.4487   15.0945 C   0  0  0  0  0  0  0  0  0  0  0  0
   15.2361   24.2647   15.0945 C   0  0  0  0  0  0  0  0  0  0  0  0
   32.0521    7.4487   15.0945 C   0  0  0  0  0  0  0  0  0  0  0  0
   32.0521   24.2647   15.0945 C   0  0  0  0  0  0  0  0  0  0  0  0
   14.0130    8.1319   15.1913 C   0  0  0  0  0  0  0  0  0  0  0  0
   14.0130   24.9479   15.1913 C   0  0  0  0  0  0  0  0  0  0  0  0
   30.8290    8.1319   15.1913 C   0  0  0  0  0  0  0  0  0  0  0  0
   30.8290   24.9479   15.1913 C   0  0  0  0  0  0  0  0  0  0  0  0
   13.9391    9.5070   15.1997 C   0  0  0  0  0  0  0  0  0  0  0  0
   13.9391   26.3230   15.1997 C   0  0  0  0  0  0  0  0  0  0  0  0
   30.7551    9.5070   15.1997 C   0  0  0  0  0  0  0  0  0  0  0  0
   30.7551   26.3230   15.1997 C   0  0  0  0  0  0  0  0  0  0  0  0
   15.0989   10.2682   15.1161 C   0  0  0  0  0  0  0  0  0  0  0  0
   15.0989   27.0842   15.1161 C   0  0  0  0  0  0  0  0  0  0  0  0
   31.9149   10.2682   15.1161 C   0  0  0  0  0  0  0  0  0  0  0  0
   31.9149   27.0842   15.1161 C   0  0  0  0  0  0  0  0  0  0  0  0
   15.0672   11.7468   15.1425 C   0  0  0  0  0  0  0  0  0  0  0  0
   15.0672   28.5628   15.1425 C   0  0  0  0  0  0  0  0  0  0  0  0
   31.8832   11.7468   15.1425 C   0  0  0  0  0  0  0  0  0  0  0  0
   31.8832   28.5628   15.1425 C   0  0  0  0  0  0  0  0  0  0  0  0
   16.3242    9.6206   15.0328 C   0  0  0  0  0  0  0  0  0  0  0  0
   16.3242   26.4366   15.0328 C   0  0  0  0  0  0  0  0  0  0  0  0
   -0.4918    9.6206   15.0328 C   0  0  0  0  0  0  0  0  0  0  0  0
   33.1402    9.6206   15.0328 C   0  0  0  0  0  0  0  0  0  0  0  0
   -0.4918   26.4366   15.0328 C   0  0  0  0  0  0  0  0  0  0  0  0
   33.1402   26.4366   15.0328 C   0  0  0  0  0  0  0  0  0  0  0  0
   16.3870    8.2438   15.0252 C   0  0  0  0  0  0  0  0  0  0  0  0
   16.3870   25.0598   15.0252 C   0  0  0  0  0  0  0  0  0  0  0  0
   -0.4290    8.2438   15.0252 C   0  0  0  0  0  0  0  0  0  0  0  0
   33.2030    8.2438   15.0252 C   0  0  0  0  0  0  0  0  0  0  0  0
   -0.4290   25.0598   15.0252 C   0  0  0  0  0  0  0  0  0  0  0  0
   33.2030   25.0598   15.0252 C   0  0  0  0  0  0  0  0  0  0  0  0
   16.4546    5.1909   15.1665 C   0  0  0  0  0  0  0  0  0  0  0  0
   16.4546   22.0069   15.1665 C   0  0  0  0  0  0  0  0  0  0  0  0
   -0.3614    5.1909   15.1665 C   0  0  0  0  0  0  0  0  0  0  0  0
   33.2706    5.1909   15.1665 C   0  0  0  0  0  0  0  0  0  0  0  0
   -0.3614   22.0069   15.1665 C   0  0  0  0  0  0  0  0  0  0  0  0
   33.2706   22.0069   15.1665 C   0  0  0  0  0  0  0  0  0  0  0  0
   16.3597    3.8077   15.2194 C   0  0  0  0  0  0  0  0  0  0  0  0
   16.3597   20.6237   15.2194 C   0  0  0  0  0  0  0  0  0  0  0  0
   -0.4563    3.8077   15.2194 C   0  0  0  0  0  0  0  0  0  0  0  0
   33.1757    3.8077   15.2194 C   0  0  0  0  0  0  0  0  0  0  0  0
   -0.4563   20.6237   15.2194 C   0  0  0  0  0  0  0  0  0  0  0  0
   33.1757   20.6237   15.2194 C   0  0  0  0  0  0  0  0  0  0  0  0
   15.1612   15.0887    1.7136 C   0  0  0  0  0  0  0  0  0  0  0  0
   15.1612   31.9047    1.7136 C   0  0  0  0  0  0  0  0  0  0  0  0
   31.9772   15.0887    1.7136 C   0  0  0  0  0  0  0  0  0  0  0  0
   31.9772   31.9047    1.7136 C   0  0  0  0  0  0  0  0  0  0  0  0
   15.1565   15.1296    3.1916 C   0  0  0  0  0  0  0  0  0  0  0  0
   15.1565   31.9456    3.1916 C   0  0  0  0  0  0  0  0  0  0  0  0
   31.9725   15.1296    3.1916 C   0  0  0  0  0  0  0  0  0  0  0  0
   31.9725   31.9456    3.1916 C   0  0  0  0  0  0  0  0  0  0  0  0
   15.0195   13.9730    3.9486 C   0  0  0  0  0  0  0  0  0  0  0  0
   15.0195   30.7890    3.9486 C   0  0  0  0  0  0  0  0  0  0  0  0
   31.8355   13.9730    3.9486 C   0  0  0  0  0  0  0  0  0  0  0  0
   31.8355   30.7890    3.9486 C   0  0  0  0  0  0  0  0  0  0  0  0
   14.9941   14.0622    5.3201 C   0  0  0  0  0  0  0  0  0  0  0  0
   14.9941   30.8782    5.3201 C   0  0  0  0  0  0  0  0  0  0  0  0
   31.8101   14.0622    5.3201 C   0  0  0  0  0  0  0  0  0  0  0  0
   31.8101   30.8782    5.3201 C   0  0  0  0  0  0  0  0  0  0  0  0
   15.0731   15.2823    6.0149 C   0  0  0  0  0  0  0  0  0  0  0  0
   15.0731   32.0983    6.0149 C   0  0  0  0  0  0  0  0  0  0  0  0
   31.8891   15.2823    6.0149 C   0  0  0  0  0  0  0  0  0  0  0  0
   31.8891   32.0983    6.0149 C   0  0  0  0  0  0  0  0  0  0  0  0
   15.0679   15.2540    7.4914 C   0  0  0  0  0  0  0  0  0  0  0  0
   15.0679   32.0700    7.4914 C   0  0  0  0  0  0  0  0  0  0  0  0
   31.8839   15.2540    7.4914 C   0  0  0  0  0  0  0  0  0  0  0  0
   31.8839   32.0700    7.4914 C   0  0  0  0  0  0  0  0  0  0  0  0
   15.1608   14.0342    8.1797 C   0  0  0  0  0  0  0  0  0  0  0  0
   15.1608   30.8502    8.1797 C   0  0  0  0  0  0  0  0  0  0  0  0
   31.9768   14.0342    8.1797 C   0  0  0  0  0  0  0  0  0  0  0  0
   31.9768   30.8502    8.1797 C   0  0  0  0  0  0  0  0  0  0  0  0
   15.1634   13.9655    9.5545 C   0  0  0  0  0  0  0  0  0  0  0  0
   15.1634   30.7815    9.5545 C   0  0  0  0  0  0  0  0  0  0  0  0
   31.9794   13.9655    9.5545 C   0  0  0  0  0  0  0  0  0  0  0  0
   31.9794   30.7815    9.5545 C   0  0  0  0  0  0  0  0  0  0  0  0
   15.0739   15.1283   10.3090 C   0  0  0  0  0  0  0  0  0  0  0  0
   15.0739   31.9443   10.3090 C   0  0  0  0  0  0  0  0  0  0  0  0
   31.8899   15.1283   10.3090 C   0  0  0  0  0  0  0  0  0  0  0  0
   31.8899   31.9443   10.3090 C   0  0  0  0  0  0  0  0  0  0  0  0
   15.0874   15.0974   11.7862 C   0  0  0  0  0  0  0  0  0  0  0  0
   15.0874   31.9134   11.7862 C   0  0  0  0  0  0  0  0  0  0  0  0
   31.9034   15.0974   11.7862 C   0  0  0  0  0  0  0  0  0  0  0  0
   31.9034   31.9134   11.7862 C   0  0  0  0  0  0  0  0  0  0  0  0
   14.9975   16.3516    9.6581 C   0  0  0  0  0  0  0  0  0  0  0  0
   14.9975   -0.4644    9.6581 C   0  0  0  0  0  0  0  0  0  0  0  0
   14.9975   33.1676    9.6581 C   0  0  0  0  0  0  0  0  0  0  0  0
   31.8135   16.3516    9.6581 C   0  0  0  0  0  0  0  0  0  0  0  0
   31.8135   -0.4644    9.6581 C   0  0  0  0  0  0  0  0  0  0  0  0
   31.8135   33.1676    9.6581 C   0  0  0  0  0  0  0  0  0  0  0  0
   15.0014   16.4084    8.2812 C   0  0  0  0  0  0  0  0  0  0  0  0
   15.0014   -0.4076    8.2812 C   0  0  0  0  0  0  0  0  0  0  0  0
   15.0014   33.2244    8.2812 C   0  0  0  0  0  0  0  0  0  0  0  0
   31.8174   16.4084    8.2812 C   0  0  0  0  0  0  0  0  0  0  0  0
   31.8174   -0.4076    8.2812 C   0  0  0  0  0  0  0  0  0  0  0  0
   31.8174   33.2244    8.2812 C   0  0  0  0  0  0  0  0  0  0  0  0
   15.1647   16.4548    5.2251 C   0  0  0  0  0  0  0  0  0  0  0  0
   15.1647   -0.3612    5.2251 C   0  0  0  0  0  0  0  0  0  0  0  0
   15.1647   33.2708    5.2251 C   0  0  0  0  0  0  0  0  0  0  0  0
   31.9807   16.4548    5.2251 C   0  0  0  0  0  0  0  0  0  0  0  0
   31.9807   -0.3612    5.2251 C   0  0  0  0  0  0  0  0  0  0  0  0
   31.9807   33.2708    5.2251 C   0  0  0  0  0  0  0  0  0  0  0  0
   15.2318   16.3486    3.8432 C   0  0  0  0  0  0  0  0  0  0  0  0
   15.2318   -0.4674    3.8432 C   0  0  0  0  0  0  0  0  0  0  0  0
   15.2318   33.1646    3.8432 C   0  0  0  0  0  0  0  0  0  0  0  0
   32.0478   16.3486    3.8432 C   0  0  0  0  0  0  0  0  0  0  0  0
   32.0478   -0.4674    3.8432 C   0  0  0  0  0  0  0  0  0  0  0  0
   32.0478   33.1646    3.8432 C   0  0  0  0  0  0  0  0  0  0  0  0
   15.7204    8.4387    5.7380 N   0  0  0  0  0  0  0  0  0  0  0  0
   15.7204   25.2547    5.7380 N   0  0  0  0  0  0  0  0  0  0  0  0
   -1.0956    8.4387    5.7380 N   0  0  0  0  0  0  0  0  0  0  0  0
   32.5364    8.4387    5.7380 N   0  0  0  0  0  0  0  0  0  0  0  0
   -1.0956   25.2547    5.7380 N   0  0  0  0  0  0  0  0  0  0  0  0
   32.5364   25.2547    5.7380 N   0  0  0  0  0  0  0  0  0  0  0  0
   11.1062   15.7162    8.3842 N   0  0  0  0  0  0  0  0  0  0  0  0
   11.1062   -1.0998    8.3842 N   0  0  0  0  0  0  0  0  0  0  0  0
   11.1062   32.5322    8.3842 N   0  0  0  0  0  0  0  0  0  0  0  0
   27.9222   15.7162    8.3842 N   0  0  0  0  0  0  0  0  0  0  0  0
   27.9222   -1.0998    8.3842 N   0  0  0  0  0  0  0  0  0  0  0  0
   27.9222   32.5322    8.3842 N   0  0  0  0  0  0  0  0  0  0  0  0
    8.3894   11.1100   15.7412 N   0  0  0  0  0  0  0  0  0  0  0  0
    8.3894   27.9260   15.7412 N   0  0  0  0  0  0  0  0  0  0  0  0
   25.2054   11.1100   15.7412 N   0  0  0  0  0  0  0  0  0  0  0  0
   25.2054   27.9260   15.7412 N   0  0  0  0  0  0  0  0  0  0  0  0
    5.6196   15.1200   12.4313 N   0  0  0  0  0  0  0  0  0  0  0  0
    5.6196   31.9360   12.4313 N   0  0  0  0  0  0  0  0  0  0  0  0
   22.4356   15.1200   12.4313 N   0  0  0  0  0  0  0  0  0  0  0  0
   22.4356   31.9360   12.4313 N   0  0  0  0  0  0  0  0  0  0  0  0
    0.9957    5.6242   15.1730 N   0  0  0  0  0  0  0  0  0  0  0  0
   34.6277    5.6242   15.1730 N   0  0  0  0  0  0  0  0  0  0  0  0
    0.9957   22.4402   15.1730 N   0  0  0  0  0  0  0  0  0  0  0  0
   34.6277   22.4402   15.1730 N   0  0  0  0  0  0  0  0  0  0  0  0
   17.8117    5.6242   15.1730 N   0  0  0  0  0  0  0  0  0  0  0  0
   17.8117   22.4402   15.1730 N   0  0  0  0  0  0  0  0  0  0  0  0
   15.1688    0.9983    5.6515 N   0  0  0  0  0  0  0  0  0  0  0  0
   15.1688   34.6303    5.6515 N   0  0  0  0  0  0  0  0  0  0  0  0
   15.1688   17.8143    5.6515 N   0  0  0  0  0  0  0  0  0  0  0  0
   31.9848    0.9983    5.6515 N   0  0  0  0  0  0  0  0  0  0  0  0
   31.9848   34.6303    5.6515 N   0  0  0  0  0  0  0  0  0  0  0  0
   31.9848   17.8143    5.6515 N   0  0  0  0  0  0  0  0  0  0  0  0
    8.4016    8.3984    8.4608 O   0  0  0  0  0  0  0  0  0  0  0  0
    8.4016   25.2144    8.4608 O   0  0  0  0  0  0  0  0  0  0  0  0
   25.2176    8.3984    8.4608 O   0  0  0  0  0  0  0  0  0  0  0  0
   25.2176   25.2144    8.4608 O   0  0  0  0  0  0  0  0  0  0  0  0
   11.2159    8.8805    9.4502 O   0  0  0  0  0  0  0  0  0  0  0  0
   11.2159   25.6965    9.4502 O   0  0  0  0  0  0  0  0  0  0  0  0
   28.0319    8.8805    9.4502 O   0  0  0  0  0  0  0  0  0  0  0  0
   28.0319   25.6965    9.4502 O   0  0  0  0  0  0  0  0  0  0  0  0
   11.1887    7.8864    7.4516 O   0  0  0  0  0  0  0  0  0  0  0  0
   11.1887   24.7024    7.4516 O   0  0  0  0  0  0  0  0  0  0  0  0
   28.0047    7.8864    7.4516 O   0  0  0  0  0  0  0  0  0  0  0  0
   28.0047   24.7024    7.4516 O   0  0  0  0  0  0  0  0  0  0  0  0
    5.6347    8.8571    7.4750 O   0  0  0  0  0  0  0  0  0  0  0  0
    5.6347   25.6731    7.4750 O   0  0  0  0  0  0  0  0  0  0  0  0
   22.4507    8.8571    7.4750 O   0  0  0  0  0  0  0  0  0  0  0  0
   22.4507   25.6731    7.4750 O   0  0  0  0  0  0  0  0  0  0  0  0
    5.6040    7.9765    9.5267 O   0  0  0  0  0  0  0  0  0  0  0  0
    5.6040   24.7925    9.5267 O   0  0  0  0  0  0  0  0  0  0  0  0
   22.4200    7.9765    9.5267 O   0  0  0  0  0  0  0  0  0  0  0  0
   22.4200   24.7925    9.5267 O   0  0  0  0  0  0  0  0  0  0  0  0
    7.4037   11.2234    7.9414 O   0  0  0  0  0  0  0  0  0  0  0  0
    7.4037   28.0394    7.9414 O   0  0  0  0  0  0  0  0  0  0  0  0
   24.2197   11.2234    7.9414 O   0  0  0  0  0  0  0  0  0  0  0  0
   24.2197   28.0394    7.9414 O   0  0  0  0  0  0  0  0  0  0  0  0
    9.4146   11.1696    8.9106 O   0  0  0  0  0  0  0  0  0  0  0  0
    9.4146   27.9856    8.9106 O   0  0  0  0  0  0  0  0  0  0  0  0
   26.2306   11.1696    8.9106 O   0  0  0  0  0  0  0  0  0  0  0  0
   26.2306   27.9856    8.9106 O   0  0  0  0  0  0  0  0  0  0  0  0
    9.3769    5.6238    7.9925 O   0  0  0  0  0  0  0  0  0  0  0  0
    9.3769   22.4398    7.9925 O   0  0  0  0  0  0  0  0  0  0  0  0
   26.1929    5.6238    7.9925 O   0  0  0  0  0  0  0  0  0  0  0  0
   26.1929   22.4398    7.9925 O   0  0  0  0  0  0  0  0  0  0  0  0
    7.3321    5.6053    8.8869 O   0  0  0  0  0  0  0  0  0  0  0  0
    7.3321   22.4213    8.8869 O   0  0  0  0  0  0  0  0  0  0  0  0
   24.1481    5.6053    8.8869 O   0  0  0  0  0  0  0  0  0  0  0  0
   24.1481   22.4213    8.8869 O   0  0  0  0  0  0  0  0  0  0  0  0
    7.9997    7.3502   11.2594 O   0  0  0  0  0  0  0  0  0  0  0  0
    7.9997   24.1662   11.2594 O   0  0  0  0  0  0  0  0  0  0  0  0
   24.8157    7.3502   11.2594 O   0  0  0  0  0  0  0  0  0  0  0  0
   24.8157   24.1662   11.2594 O   0  0  0  0  0  0  0  0  0  0  0  0
    8.8661    9.4048   11.2058 O   0  0  0  0  0  0  0  0  0  0  0  0
    8.8661   26.2208   11.2058 O   0  0  0  0  0  0  0  0  0  0  0  0
   25.6821    9.4048   11.2058 O   0  0  0  0  0  0  0  0  0  0  0  0
   25.6821   26.2208   11.2058 O   0  0  0  0  0  0  0  0  0  0  0  0
    7.9102    9.3869    5.6621 O   0  0  0  0  0  0  0  0  0  0  0  0
    7.9102   26.2029    5.6621 O   0  0  0  0  0  0  0  0  0  0  0  0
   24.7262    9.3869    5.6621 O   0  0  0  0  0  0  0  0  0  0  0  0
   24.7262   26.2029    5.6621 O   0  0  0  0  0  0  0  0  0  0  0  0
    8.8989    7.3836    5.6382 O   0  0  0  0  0  0  0  0  0  0  0  0
    8.8989   24.1996    5.6382 O   0  0  0  0  0  0  0  0  0  0  0  0
   25.7149    7.3836    5.6382 O   0  0  0  0  0  0  0  0  0  0  0  0
   25.7149   24.1996    5.6382 O   0  0  0  0  0  0  0  0  0  0  0  0
   15.1125   15.1132   15.1784 O   0  0  0  0  0  0  0  0  0  0  0  0
   15.1125   31.9292   15.1784 O   0  0  0  0  0  0  0  0  0  0  0  0
   31.9285   15.1132   15.1784 O   0  0  0  0  0  0  0  0  0  0  0  0
   31.9285   31.9292   15.1784 O   0  0  0  0  0  0  0  0  0  0  0  0
    1.1179   15.6036   -0.6635 O   0  0  0  0  0  0  0  0  0  0  0  0
    1.1179   15.6036   16.1525 O   0  0  0  0  0  0  0  0  0  0  0  0
   34.7499   15.6036   -0.6635 O   0  0  0  0  0  0  0  0  0  0  0  0
   34.7499   15.6036   16.1525 O   0  0  0  0  0  0  0  0  0  0  0  0
    1.1179   -1.2124   -0.6635 O   0  0  0  0  0  0  0  0  0  0  0  0
    1.1179   -1.2124   16.1525 O   0  0  0  0  0  0  0  0  0  0  0  0
    1.1179   32.4196   -0.6635 O   0  0  0  0  0  0  0  0  0  0  0  0
    1.1179   32.4196   16.1525 O   0  0  0  0  0  0  0  0  0  0  0  0
   34.7499   -1.2124   -0.6635 O   0  0  0  0  0  0  0  0  0  0  0  0
   34.7499   -1.2124   16.1525 O   0  0  0  0  0  0  0  0  0  0  0  0
   34.7499   32.4196   -0.6635 O   0  0  0  0  0  0  0  0  0  0  0  0
   34.7499   32.4196   16.1525 O   0  0  0  0  0  0  0  0  0  0  0  0
   17.9339   15.6036   -0.6635 O   0  0  0  0  0  0  0  0  0  0  0  0
   17.9339   15.6036   16.1525 O   0  0  0  0  0  0  0  0  0  0  0  0
   17.9339   -1.2124   -0.6635 O   0  0  0  0  0  0  0  0  0  0  0  0
   17.9339   -1.2124   16.1525 O   0  0  0  0  0  0  0  0  0  0  0  0
   17.9339   32.4196   -0.6635 O   0  0  0  0  0  0  0  0  0  0  0  0
   17.9339   32.4196   16.1525 O   0  0  0  0  0  0  0  0  0  0  0  0
    1.0737   14.6169   14.1507 O   0  0  0  0  0  0  0  0  0  0  0  0
   34.7057   14.6169   14.1507 O   0  0  0  0  0  0  0  0  0  0  0  0
    1.0737   31.4329   14.1507 O   0  0  0  0  0  0  0  0  0  0  0  0
   34.7057   31.4329   14.1507 O   0  0  0  0  0  0  0  0  0  0  0  0
   17.8897   14.6169   14.1507 O   0  0  0  0  0  0  0  0  0  0  0  0
   17.8897   31.4329   14.1507 O   0  0  0  0  0  0  0  0  0  0  0  0
   12.3427   15.5546   14.1994 O   0  0  0  0  0  0  0  0  0  0  0  0
   12.3427   -1.2614   14.1994 O   0  0  0  0  0  0  0  0  0  0  0  0
   12.3427   32.3706   14.1994 O   0  0  0  0  0  0  0  0  0  0  0  0
   29.1587   15.5546   14.1994 O   0  0  0  0  0  0  0  0  0  0  0  0
   29.1587   -1.2614   14.1994 O   0  0  0  0  0  0  0  0  0  0  0  0
   29.1587   32.3706   14.1994 O   0  0  0  0  0  0  0  0  0  0  0  0
   12.3110   14.6630   -0.5697 O   0  0  0  0  0  0  0  0  0  0  0  0
   12.3110   14.6630   16.2463 O   0  0  0  0  0  0  0  0  0  0  0  0
   12.3110   31.4790   -0.5697 O   0  0  0  0  0  0  0  0  0  0  0  0
   12.3110   31.4790   16.2463 O   0  0  0  0  0  0  0  0  0  0  0  0
   29.1270   14.6630   -0.5697 O   0  0  0  0  0  0  0  0  0  0  0  0
   29.1270   14.6630   16.2463 O   0  0  0  0  0  0  0  0  0  0  0  0
   29.1270   31.4790   -0.5697 O   0  0  0  0  0  0  0  0  0  0  0  0
   29.1270   31.4790   16.2463 O   0  0  0  0  0  0  0  0  0  0  0  0
   14.1063    1.1120   14.6390 O   0  0  0  0  0  0  0  0  0  0  0  0
   14.1063   34.7440   14.6390 O   0  0  0  0  0  0  0  0  0  0  0  0
   14.1063   17.9280   14.6390 O   0  0  0  0  0  0  0  0  0  0  0  0
   30.9223    1.1120   14.6390 O   0  0  0  0  0  0  0  0  0  0  0  0
   30.9223   34.7440   14.6390 O   0  0  0  0  0  0  0  0  0  0  0  0
   30.9223   17.9280   14.6390 O   0  0  0  0  0  0  0  0  0  0  0  0
   16.1151    1.0728   15.6127 O   0  0  0  0  0  0  0  0  0  0  0  0
   16.1151   34.7048   15.6127 O   0  0  0  0  0  0  0  0  0  0  0  0
   16.1151   17.8888   15.6127 O   0  0  0  0  0  0  0  0  0  0  0  0
   -0.7009    1.0728   15.6127 O   0  0  0  0  0  0  0  0  0  0  0  0
   -0.7009   34.7048   15.6127 O   0  0  0  0  0  0  0  0  0  0  0  0
   32.9311    1.0728   15.6127 O   0  0  0  0  0  0  0  0  0  0  0  0
   32.9311   34.7048   15.6127 O   0  0  0  0  0  0  0  0  0  0  0  0
   -0.7009   17.8888   15.6127 O   0  0  0  0  0  0  0  0  0  0  0  0
   32.9311   17.8888   15.6127 O   0  0  0  0  0  0  0  0  0  0  0  0
   16.0912   12.3434   14.7173 O   0  0  0  0  0  0  0  0  0  0  0  0
   16.0912   29.1594   14.7173 O   0  0  0  0  0  0  0  0  0  0  0  0
   -0.7248   12.3434   14.7173 O   0  0  0  0  0  0  0  0  0  0  0  0
   32.9072   12.3434   14.7173 O   0  0  0  0  0  0  0  0  0  0  0  0
   -0.7248   29.1594   14.7173 O   0  0  0  0  0  0  0  0  0  0  0  0
   32.9072   29.1594   14.7173 O   0  0  0  0  0  0  0  0  0  0  0  0
   14.0403   12.3133   15.5958 O   0  0  0  0  0  0  0  0  0  0  0  0
   14.0403   29.1293   15.5958 O   0  0  0  0  0  0  0  0  0  0  0  0
   30.8563   12.3133   15.5958 O   0  0  0  0  0  0  0  0  0  0  0  0
   30.8563   29.1293   15.5958 O   0  0  0  0  0  0  0  0  0  0  0  0
   14.7100   14.0576    1.1502 O   0  0  0  0  0  0  0  0  0  0  0  0
   14.7100   30.8736    1.1502 O   0  0  0  0  0  0  0  0  0  0  0  0
   31.5260   14.0576    1.1502 O   0  0  0  0  0  0  0  0  0  0  0  0
   31.5260   30.8736    1.1502 O   0  0  0  0  0  0  0  0  0  0  0  0
   15.5904   16.1075    1.1131 O   0  0  0  0  0  0  0  0  0  0  0  0
   15.5904   -0.7085    1.1131 O   0  0  0  0  0  0  0  0  0  0  0  0
   15.5904   32.9235    1.1131 O   0  0  0  0  0  0  0  0  0  0  0  0
   -1.2256   16.1075    1.1131 O   0  0  0  0  0  0  0  0  0  0  0  0
   32.4064   16.1075    1.1131 O   0  0  0  0  0  0  0  0  0  0  0  0
   -1.2256   -0.7085    1.1131 O   0  0  0  0  0  0  0  0  0  0  0  0
   -1.2256   32.9235    1.1131 O   0  0  0  0  0  0  0  0  0  0  0  0
   32.4064   -0.7085    1.1131 O   0  0  0  0  0  0  0  0  0  0  0  0
   32.4064   32.9235    1.1131 O   0  0  0  0  0  0  0  0  0  0  0  0
   14.5963   16.0951   12.3762 O   0  0  0  0  0  0  0  0  0  0  0  0
   14.5963   -0.7209   12.3762 O   0  0  0  0  0  0  0  0  0  0  0  0
   14.5963   32.9111   12.3762 O   0  0  0  0  0  0  0  0  0  0  0  0
   31.4123   16.0951   12.3762 O   0  0  0  0  0  0  0  0  0  0  0  0
   31.4123   -0.7209   12.3762 O   0  0  0  0  0  0  0  0  0  0  0  0
   31.4123   32.9111   12.3762 O   0  0  0  0  0  0  0  0  0  0  0  0
   15.5932   14.0957   12.3514 O   0  0  0  0  0  0  0  0  0  0  0  0
   15.5932   30.9117   12.3514 O   0  0  0  0  0  0  0  0  0  0  0  0
   -1.2228   14.0957   12.3514 O   0  0  0  0  0  0  0  0  0  0  0  0
   32.4092   14.0957   12.3514 O   0  0  0  0  0  0  0  0  0  0  0  0
   -1.2228   30.9117   12.3514 O   0  0  0  0  0  0  0  0  0  0  0  0
   32.4092   30.9117   12.3514 O   0  0  0  0  0  0  0  0  0  0  0  0
  1723  1  0  0  0  0
  1731  1  0  0  0  0
  1751  1  0  0  0  0
  1771  1  0  0  0  0
  2724  1  0  0  0  0
  2732  1  0  0  0  0
  2752  1  0  0  0  0
  2772  1  0  0  0  0
  3725  1  0  0  0  0
  3733  1  0  0  0  0
  3753  1  0  0  0  0
  3773  1  0  0  0  0
  4726  1  0  0  0  0
  4734  1  0  0  0  0
  4754  1  0  0  0  0
  4774  1  0  0  0  0
  5723  1  0  0  0  0
  5735  1  0  0  0  0
  5743  1  0  0  0  0
  5767  1  0  0  0  0
  6724  1  0  0  0  0
  6736  1  0  0  0  0
  6744  1  0  0  0  0
  6768  1  0  0  0  0
  7725  1  0  0  0  0
  7737  1  0  0  0  0
  7745  1  0  0  0  0
  7769  1  0  0  0  0
  8726  1  0  0  0  0
  8738  1  0  0  0  0
  8746  1  0  0  0  0
  8770  1  0  0  0  0
  9723  1  0  0  0  0
  9739  1  0  0  0  0
  9755  1  0  0  0  0
  9759  1  0  0  0  0
 10724  1  0  0  0  0
 10740  1  0  0  0  0
 10756  1  0  0  0  0
 10760  1  0  0  0  0
 11725  1  0  0  0  0
 11741  1  0  0  0  0
 11757  1  0  0  0  0
 11761  1  0  0  0  0
 12726  1  0  0  0  0
 12742  1  0  0  0  0
 12758  1  0  0  0  0
 12762  1  0  0  0  0
 13723  1  0  0  0  0
 13727  1  0  0  0  0
 13747  1  0  0  0  0
 13763  1  0  0  0  0
 14724  1  0  0  0  0
 14728  1  0  0  0  0
 14748  1  0  0  0  0
 14764  1  0  0  0  0
 15725  1  0  0  0  0
 15729  1  0  0  0  0
 15749  1  0  0  0  0
 15765  1  0  0  0  0
 16726  1  0  0  0  0
 16730  1  0  0  0  0
 16750  1  0  0  0  0
 16766  1  0  0  0  0
 17775  1  0  0  0  0
 17801  1  0  0  0  0
 17832  1  0  0  0  0
 17861  1  0  0  0  0
 18776  1  0  0  0  0
 18802  1  0  0  0  0
 18833  1  0  0  0  0
 18862  1  0  0  0  0
 19797  1  0  0  0  0
 19834  1  0  0  0  0
 19863  1  0  0  0  0
 20777  1  0  0  0  0
 20798  1  0  0  0  0
 20835  1  0  0  0  0
 20864  1  0  0  0  0
 21799  1  0  0  0  0
 21836  1  0  0  0  0
 21865  1  0  0  0  0
 22778  1  0  0  0  0
 22800  1  0  0  0  0
 22837  1  0  0  0  0
 22866  1  0  0  0  0
 23775  1  0  0  0  0
 23803  1  0  0  0  0
 23819  1  0  0  0  0
 23855  1  0  0  0  0
 24804  1  0  0  0  0
 24817  1  0  0  0  0
 24856  1  0  0  0  0
 25776  1  0  0  0  0
 25805  1  0  0  0  0
 25818  1  0  0  0  0
 25857  1  0  0  0  0
 26777  1  0  0  0  0
 26806  1  0  0  0  0
 26822  1  0  0  0  0
 26858  1  0  0  0  0
 27807  1  0  0  0  0
 27820  1  0  0  0  0
 27859  1  0  0  0  0
 28778  1  0  0  0  0
 28808  1  0  0  0  0
 28821  1  0  0  0  0
 28860  1  0  0  0  0
 29809  1  0  0  0  0
 29842  1  0  0  0  0
 30775  1  0  0  0  0
 30810  1  0  0  0  0
 30838  1  0  0  0  0
 31811  1  0  0  0  0
 31843  1  0  0  0  0
 32776  1  0  0  0  0
 32812  1  0  0  0  0
 32839  1  0  0  0  0
 33813  1  0  0  0  0
 33844  1  0  0  0  0
 34777  1  0  0  0  0
 34814  1  0  0  0  0
 34840  1  0  0  0  0
 35815  1  0  0  0  0
 35845  1  0  0  0  0
 36778  1  0  0  0  0
 36816  1  0  0  0  0
 36841  1  0  0  0  0
 37791  1  0  0  0  0
 37846  1  0  0  0  0
 38775  1  0  0  0  0
 38792  1  0  0  0  0
 38825  1  0  0  0  0
 39793  1  0  0  0  0
 39847  1  0  0  0  0
 40794  1  0  0  0  0
 40823  1  0  0  0  0
 41795  1  0  0  0  0
 41848  1  0  0  0  0
 42776  1  0  0  0  0
 42796  1  0  0  0  0
 42824  1  0  0  0  0
 43779  1  0  0  0  0
 43849  1  0  0  0  0
 44780  1  0  0  0  0
 44830  1  0  0  0  0
 45781  1  0  0  0  0
 45850  1  0  0  0  0
 46777  1  0  0  0  0
 46782  1  0  0  0  0
 46831  1  0  0  0  0
 47783  1  0  0  0  0
 47851  1  0  0  0  0
 48784  1  0  0  0  0
 48826  1  0  0  0  0
 49785  1  0  0  0  0
 49852  1  0  0  0  0
 50786  1  0  0  0  0
 50827  1  0  0  0  0
 51787  1  0  0  0  0
 51853  1  0  0  0  0
 52788  1  0  0  0  0
 52828  1  0  0  0  0
 53789  1  0  0  0  0
 53854  1  0  0  0  0
 54778  1  0  0  0  0
 54790  1  0  0  0  0
 54829  1  0  0  0  0
 55323  1  0  0  0  0
 56324  1  0  0  0  0
 57325  1  0  0  0  0
 58326  1  0  0  0  0
 59327  1  0  0  0  0
 60328  1  0  0  0  0
 61329  1  0  0  0  0
 62330  1  0  0  0  0
 63343  1  0  0  0  0
 64344  1  0  0  0  0
 65345  1  0  0  0  0
 66346  1  0  0  0  0
 67347  1  0  0  0  0
 68348  1  0  0  0  0
 69349  1  0  0  0  0
 70350  1  0  0  0  0
 71359  1  0  0  0  0
 72360  1  0  0  0  0
 73361  1  0  0  0  0
 74362  1  0  0  0  0
 75363  1  0  0  0  0
 76364  1  0  0  0  0
 77365  1  0  0  0  0
 78366  1  0  0  0  0
 79691  1  0  0  0  0
 80692  1  0  0  0  0
 81693  1  0  0  0  0
 82694  1  0  0  0  0
 83695  1  0  0  0  0
 84696  1  0  0  0  0
 85691  1  0  0  0  0
 86692  1  0  0  0  0
 87693  1  0  0  0  0
 88694  1  0  0  0  0
 89695  1  0  0  0  0
 90696  1  0  0  0  0
 91371  1  0  0  0  0
 92372  1  0  0  0  0
 93373  1  0  0  0  0
 94374  1  0  0  0  0
 95383  1  0  0  0  0
 96384  1  0  0  0  0
 97385  1  0  0  0  0
 98386  1  0  0  0  0
 99387  1  0  0  0  0
100388  1  0  0  0  0
101389  1  0  0  0  0
102390  1  0  0  0  0
103403  1  0  0  0  0
104404  1  0  0  0  0
105405  1  0  0  0  0
106406  1  0  0  0  0
107407  1  0  0  0  0
108408  1  0  0  0  0
109409  1  0  0  0  0
110410  1  0  0  0  0
111419  1  0  0  0  0
112420  1  0  0  0  0
113421  1  0  0  0  0
114422  1  0  0  0  0
115423  1  0  0  0  0
116424  1  0  0  0  0
117425  1  0  0  0  0
118426  1  0  0  0  0
119697  1  0  0  0  0
120698  1  0  0  0  0
121699  1  0  0  0  0
122700  1  0  0  0  0
123701  1  0  0  0  0
124702  1  0  0  0  0
125697  1  0  0  0  0
126698  1  0  0  0  0
127699  1  0  0  0  0
128700  1  0  0  0  0
129701  1  0  0  0  0
130702  1  0  0  0  0
131431  1  0  0  0  0
132432  1  0  0  0  0
133433  1  0  0  0  0
134434  1  0  0  0  0
135443  1  0  0  0  0
136444  1  0  0  0  0
137445  1  0  0  0  0
138446  1  0  0  0  0
139447  1  0  0  0  0
140448  1  0  0  0  0
141449  1  0  0  0  0
142450  1  0  0  0  0
143459  1  0  0  0  0
144460  1  0  0  0  0
145461  1  0  0  0  0
146462  1  0  0  0  0
147463  1  0  0  0  0
148464  1  0  0  0  0
149465  1  0  0  0  0
150466  1  0  0  0  0
151475  1  0  0  0  0
152476  1  0  0  0  0
153477  1  0  0  0  0
154478  1  0  0  0  0
155479  1  0  0  0  0
156480  1  0  0  0  0
157481  1  0  0  0  0
158482  1  0  0  0  0
159703  1  0  0  0  0
160704  1  0  0  0  0
161705  1  0  0  0  0
162706  1  0  0  0  0
163703  1  0  0  0  0
164704  1  0  0  0  0
165705  1  0  0  0  0
166706  1  0  0  0  0
167487  1  0  0  0  0
168488  1  0  0  0  0
169489  1  0  0  0  0
170490  1  0  0  0  0
171499  1  0  0  0  0
172500  1  0  0  0  0
173501  1  0  0  0  0
174502  1  0  0  0  0
175503  1  0  0  0  0
176504  1  0  0  0  0
177505  1  0  0  0  0
178506  1  0  0  0  0
179507  1  0  0  0  0
180508  1  0  0  0  0
181509  1  0  0  0  0
182510  1  0  0  0  0
183511  1  0  0  0  0
184512  1  0  0  0  0
185513  1  0  0  0  0
186514  1  0  0  0  0
187523  1  0  0  0  0
188524  1  0  0  0  0
189525  1  0  0  0  0
190526  1  0  0  0  0
191527  1  0  0  0  0
192528  1  0  0  0  0
193529  1  0  0  0  0
194530  1  0  0  0  0
195531  1  0  0  0  0
196532  1  0  0  0  0
197533  1  0  0  0  0
198534  1  0  0  0  0
199535  1  0  0  0  0
200536  1  0  0  0  0
201537  1  0  0  0  0
202538  1  0  0  0  0
203547  1  0  0  0  0
204548  1  0  0  0  0
205549  1  0  0  0  0
206550  1  0  0  0  0
207551  1  0  0  0  0
208552  1  0  0  0  0
209553  1  0  0  0  0
210554  1  0  0  0  0
211707  1  0  0  0  0
212708  1  0  0  0  0
213709  1  0  0  0  0
214710  1  0  0  0  0
215707  1  0  0  0  0
216708  1  0  0  0  0
217709  1  0  0  0  0
218710  1  0  0  0  0
219559  1  0  0  0  0
220560  1  0  0  0  0
221561  1  0  0  0  0
222562  1  0  0  0  0
223571  1  0  0  0  0
224572  1  0  0  0  0
225573  1  0  0  0  0
226574  1  0  0  0  0
227575  1  0  0  0  0
228576  1  0  0  0  0
229577  1  0  0  0  0
230578  1  0  0  0  0
231587  1  0  0  0  0
232588  1  0  0  0  0
233589  1  0  0  0  0
234590  1  0  0  0  0
235591  1  0  0  0  0
236592  1  0  0  0  0
237593  1  0  0  0  0
238594  1  0  0  0  0
239605  1  0  0  0  0
240606  1  0  0  0  0
241607  1  0  0  0  0
242608  1  0  0  0  0
243603  1  0  0  0  0
244604  1  0  0  0  0
245611  1  0  0  0  0
246612  1  0  0  0  0
247613  1  0  0  0  0
248614  1  0  0  0  0
249609  1  0  0  0  0
250610  1  0  0  0  0
251711  1  0  0  0  0
252712  1  0  0  0  0
253713  1  0  0  0  0
254714  1  0  0  0  0
255715  1  0  0  0  0
256716  1  0  0  0  0
257711  1  0  0  0  0
258712  1  0  0  0  0
259713  1  0  0  0  0
260714  1  0  0  0  0
261715  1  0  0  0  0
262716  1  0  0  0  0
263623  1  0  0  0  0
264624  1  0  0  0  0
265625  1  0  0  0  0
266626  1  0  0  0  0
267621  1  0  0  0  0
268622  1  0  0  0  0
269635  1  0  0  0  0
270636  1  0  0  0  0
271637  1  0  0  0  0
272638  1  0  0  0  0
273639  1  0  0  0  0
274640  1  0  0  0  0
275641  1  0  0  0  0
276642  1  0  0  0  0
277651  1  0  0  0  0
278652  1  0  0  0  0
279653  1  0  0  0  0
280654  1  0  0  0  0
281655  1  0  0  0  0
282656  1  0  0  0  0
283657  1  0  0  0  0
284658  1  0  0  0  0
285668  1  0  0  0  0
286669  1  0  0  0  0
287667  1  0  0  0  0
288671  1  0  0  0  0
289672  1  0  0  0  0
290670  1  0  0  0  0
291674  1  0  0  0  0
292675  1  0  0  0  0
293673  1  0  0  0  0
294677  1  0  0  0  0
295678  1  0  0  0  0
296676  1  0  0  0  0
297717  1  0  0  0  0
298718  1  0  0  0  0
299719  1  0  0  0  0
300720  1  0  0  0  0
301721  1  0  0  0  0
302722  1  0  0  0  0
303717  1  0  0  0  0
304718  1  0  0  0  0
305719  1  0  0  0  0
306720  1  0  0  0  0
307721  1  0  0  0  0
308722  1  0  0  0  0
309686  1  0  0  0  0
310687  1  0  0  0  0
311685  1  0  0  0  0
312689  1  0  0  0  0
313690  1  0  0  0  0
314688  1  0  0  0  0
315319  1  0  0  0  0
315727  1  0  0  0  0
315731  1  0  0  0  0
316320  1  0  0  0  0
316728  1  0  0  0  0
316732  1  0  0  0  0
317321  1  0  0  0  0
317729  1  0  0  0  0
317733  1  0  0  0  0
318322  1  0  0  0  0
318730  1  0  0  0  0
318734  1  0  0  0  0
319323  1  0  0  0  0
319371  1  0  0  0  0
320324  1  0  0  0  0
320372  1  0  0  0  0
321325  1  0  0  0  0
321373  1  0  0  0  0
322326  1  0  0  0  0
322374  1  0  0  0  0
323327  1  0  0  0  0
324328  1  0  0  0  0
325329  1  0  0  0  0
326330  1  0  0  0  0
327331  1  0  0  0  0
328332  1  0  0  0  0
329334  1  0  0  0  0
330336  1  0  0  0  0
331341  1  0  0  0  0
331367  1  0  0  0  0
332342  1  0  0  0  0
332368  1  0  0  0  0
333337  1  0  0  0  0
334338  1  0  0  0  0
334369  1  0  0  0  0
335339  1  0  0  0  0
336340  1  0  0  0  0
336370  1  0  0  0  0
337343  1  0  0  0  0
337363  1  0  0  0  0
339344  1  0  0  0  0
339364  1  0  0  0  0
341345  1  0  0  0  0
341365  1  0  0  0  0
342346  1  0  0  0  0
342366  1  0  0  0  0
343347  1  0  0  0  0
344348  1  0  0  0  0
345349  1  0  0  0  0
346350  1  0  0  0  0
347351  1  0  0  0  0
348352  1  0  0  0  0
349353  1  0  0  0  0
350354  1  0  0  0  0
351355  1  0  0  0  0
351359  1  0  0  0  0
352356  1  0  0  0  0
352360  1  0  0  0  0
353357  1  0  0  0  0
353361  1  0  0  0  0
354358  1  0  0  0  0
354362  1  0  0  0  0
355735  1  0  0  0  0
355739  1  0  0  0  0
356736  1  0  0  0  0
356740  1  0  0  0  0
357737  1  0  0  0  0
357741  1  0  0  0  0
358738  1  0  0  0  0
358742  1  0  0  0  0
359363  1  0  0  0  0
360364  1  0  0  0  0
361365  1  0  0  0  0
362366  1  0  0  0  0
367371  1  0  0  0  0
367691  1  0  0  0  0
368372  1  0  0  0  0
368692  1  0  0  0  0
369373  1  0  0  0  0
369694  1  0  0  0  0
370374  1  0  0  0  0
370696  1  0  0  0  0
375379  1  0  0  0  0
375743  1  0  0  0  0
375747  1  0  0  0  0
376380  1  0  0  0  0
376744  1  0  0  0  0
376748  1  0  0  0  0
377381  1  0  0  0  0
377745  1  0  0  0  0
377749  1  0  0  0  0
378382  1  0  0  0  0
378746  1  0  0  0  0
378750  1  0  0  0  0
379383  1  0  0  0  0
379431  1  0  0  0  0
380384  1  0  0  0  0
380432  1  0  0  0  0
381385  1  0  0  0  0
381433  1  0  0  0  0
382386  1  0  0  0  0
382434  1  0  0  0  0
383387  1  0  0  0  0
384388  1  0  0  0  0
385389  1  0  0  0  0
386390  1  0  0  0  0
387391  1  0  0  0  0
388393  1  0  0  0  0
389394  1  0  0  0  0
390396  1  0  0  0  0
391399  1  0  0  0  0
391427  1  0  0  0  0
392397  1  0  0  0  0
393398  1  0  0  0  0
393428  1  0  0  0  0
394402  1  0  0  0  0
394429  1  0  0  0  0
395400  1  0  0  0  0
396401  1  0  0  0  0
396430  1  0  0  0  0
397403  1  0  0  0  0
397423  1  0  0  0  0
399404  1  0  0  0  0
399424  1  0  0  0  0
400405  1  0  0  0  0
400425  1  0  0  0  0
402406  1  0  0  0  0
402426  1  0  0  0  0
403407  1  0  0  0  0
404408  1  0  0  0  0
405409  1  0  0  0  0
406410  1  0  0  0  0
407411  1  0  0  0  0
408412  1  0  0  0  0
409413  1  0  0  0  0
410414  1  0  0  0  0
411415  1  0  0  0  0
411419  1  0  0  0  0
412416  1  0  0  0  0
412420  1  0  0  0  0
413417  1  0  0  0  0
413421  1  0  0  0  0
414418  1  0  0  0  0
414422  1  0  0  0  0
415751  1  0  0  0  0
415755  1  0  0  0  0
416752  1  0  0  0  0
416756  1  0  0  0  0
417753  1  0  0  0  0
417757  1  0  0  0  0
418754  1  0  0  0  0
418758  1  0  0  0  0
419423  1  0  0  0  0
420424  1  0  0  0  0
421425  1  0  0  0  0
422426  1  0  0  0  0
427431  1  0  0  0  0
427697  1  0  0  0  0
428432  1  0  0  0  0
428699  1  0  0  0  0
429433  1  0  0  0  0
429700  1  0  0  0  0
430434  1  0  0  0  0
430702  1  0  0  0  0
435439  1  0  0  0  0
435759  1  0  0  0  0
435763  1  0  0  0  0
436440  1  0  0  0  0
436760  1  0  0  0  0
436764  1  0  0  0  0
437441  1  0  0  0  0
437761  1  0  0  0  0
437765  1  0  0  0  0
438442  1  0  0  0  0
438762  1  0  0  0  0
438766  1  0  0  0  0
439443  1  0  0  0  0
439487  1  0  0  0  0
440444  1  0  0  0  0
440488  1  0  0  0  0
441445  1  0  0  0  0
441489  1  0  0  0  0
442446  1  0  0  0  0
442490  1  0  0  0  0
443447  1  0  0  0  0
444448  1  0  0  0  0
445449  1  0  0  0  0
446450  1  0  0  0  0
447451  1  0  0  0  0
448452  1  0  0  0  0
449453  1  0  0  0  0
450454  1  0  0  0  0
451483  1  0  0  0  0
452484  1  0  0  0  0
453485  1  0  0  0  0
454486  1  0  0  0  0
455459  1  0  0  0  0
455479  1  0  0  0  0
456460  1  0  0  0  0
456480  1  0  0  0  0
457461  1  0  0  0  0
457481  1  0  0  0  0
458462  1  0  0  0  0
458482  1  0  0  0  0
459463  1  0  0  0  0
460464  1  0  0  0  0
461465  1  0  0  0  0
462466  1  0  0  0  0
463467  1  0  0  0  0
464468  1  0  0  0  0
465469  1  0  0  0  0
466470  1  0  0  0  0
467471  1  0  0  0  0
467475  1  0  0  0  0
468472  1  0  0  0  0
468476  1  0  0  0  0
469473  1  0  0  0  0
469477  1  0  0  0  0
470474  1  0  0  0  0
470478  1  0  0  0  0
471767  1  0  0  0  0
471771  1  0  0  0  0
472768  1  0  0  0  0
472772  1  0  0  0  0
473769  1  0  0  0  0
473773  1  0  0  0  0
474770  1  0  0  0  0
474774  1  0  0  0  0
475479  1  0  0  0  0
476480  1  0  0  0  0
477481  1  0  0  0  0
478482  1  0  0  0  0
483487  1  0  0  0  0
483703  1  0  0  0  0
484488  1  0  0  0  0
484704  1  0  0  0  0
485489  1  0  0  0  0
485705  1  0  0  0  0
486490  1  0  0  0  0
486706  1  0  0  0  0
491495  1  0  0  0  0
491780  1  0  0  0  0
491797  1  0  0  0  0
492496  1  0  0  0  0
492786  1  0  0  0  0
492799  1  0  0  0  0
493497  1  0  0  0  0
493792  1  0  0  0  0
493801  1  0  0  0  0
494498  1  0  0  0  0
494796  1  0  0  0  0
494802  1  0  0  0  0
495500  1  0  0  0  0
495559  1  0  0  0  0
496502  1  0  0  0  0
496560  1  0  0  0  0
497504  1  0  0  0  0
497561  1  0  0  0  0
498506  1  0  0  0  0
498562  1  0  0  0  0
499507  1  0  0  0  0
500508  1  0  0  0  0
501509  1  0  0  0  0
502510  1  0  0  0  0
503511  1  0  0  0  0
504512  1  0  0  0  0
505513  1  0  0  0  0
506514  1  0  0  0  0
508515  1  0  0  0  0
510516  1  0  0  0  0
512517  1  0  0  0  0
514518  1  0  0  0  0
515519  1  0  0  0  0
515555  1  0  0  0  0
516520  1  0  0  0  0
516556  1  0  0  0  0
517521  1  0  0  0  0
517557  1  0  0  0  0
518522  1  0  0  0  0
518558  1  0  0  0  0
519524  1  0  0  0  0
519551  1  0  0  0  0
520526  1  0  0  0  0
520552  1  0  0  0  0
521528  1  0  0  0  0
521553  1  0  0  0  0
522530  1  0  0  0  0
522554  1  0  0  0  0
523531  1  0  0  0  0
524532  1  0  0  0  0
525533  1  0  0  0  0
526534  1  0  0  0  0
527535  1  0  0  0  0
528536  1  0  0  0  0
529537  1  0  0  0  0
530538  1  0  0  0  0
532539  1  0  0  0  0
534540  1  0  0  0  0
536541  1  0  0  0  0
538542  1  0  0  0  0
539543  1  0  0  0  0
539547  1  0  0  0  0
540544  1  0  0  0  0
540548  1  0  0  0  0
541545  1  0  0  0  0
541549  1  0  0  0  0
542546  1  0  0  0  0
542550  1  0  0  0  0
543803  1  0  0  0  0
543810  1  0  0  0  0
544805  1  0  0  0  0
544812  1  0  0  0  0
545806  1  0  0  0  0
545814  1  0  0  0  0
546808  1  0  0  0  0
546816  1  0  0  0  0
547551  1  0  0  0  0
548552  1  0  0  0  0
549553  1  0  0  0  0
550554  1  0  0  0  0
555559  1  0  0  0  0
555707  1  0  0  0  0
556560  1  0  0  0  0
556708  1  0  0  0  0
557561  1  0  0  0  0
557709  1  0  0  0  0
558562  1  0  0  0  0
558710  1  0  0  0  0
563567  1  0  0  0  0
563817  1  0  0  0  0
563823  1  0  0  0  0
564568  1  0  0  0  0
564819  1  0  0  0  0
564825  1  0  0  0  0
565569  1  0  0  0  0
565820  1  0  0  0  0
565828  1  0  0  0  0
566570  1  0  0  0  0
566822  1  0  0  0  0
566831  1  0  0  0  0
567571  1  0  0  0  0
567621  1  0  0  0  0
568572  1  0  0  0  0
568622  1  0  0  0  0
569573  1  0  0  0  0
569624  1  0  0  0  0
570574  1  0  0  0  0
570626  1  0  0  0  0
571575  1  0  0  0  0
572576  1  0  0  0  0
573577  1  0  0  0  0
574578  1  0  0  0  0
575579  1  0  0  0  0
576580  1  0  0  0  0
577581  1  0  0  0  0
578582  1  0  0  0  0
579583  1  0  0  0  0
579615  1  0  0  0  0
580584  1  0  0  0  0
580616  1  0  0  0  0
581585  1  0  0  0  0
581618  1  0  0  0  0
582586  1  0  0  0  0
582620  1  0  0  0  0
583587  1  0  0  0  0
583609  1  0  0  0  0
584588  1  0  0  0  0
584610  1  0  0  0  0
585589  1  0  0  0  0
585612  1  0  0  0  0
586590  1  0  0  0  0
586614  1  0  0  0  0
587591  1  0  0  0  0
588592  1  0  0  0  0
589593  1  0  0  0  0
590594  1  0  0  0  0
591595  1  0  0  0  0
592596  1  0  0  0  0
593597  1  0  0  0  0
594598  1  0  0  0  0
595599  1  0  0  0  0
595603  1  0  0  0  0
596600  1  0  0  0  0
596604  1  0  0  0  0
597601  1  0  0  0  0
597606  1  0  0  0  0
598602  1  0  0  0  0
598608  1  0  0  0  0
599832  1  0  0  0  0
599838  1  0  0  0  0
600833  1  0  0  0  0
600839  1  0  0  0  0
601835  1  0  0  0  0
601840  1  0  0  0  0
602837  1  0  0  0  0
602841  1  0  0  0  0
603609  1  0  0  0  0
604610  1  0  0  0  0
605611  1  0  0  0  0
606612  1  0  0  0  0
607613  1  0  0  0  0
608614  1  0  0  0  0
615621  1  0  0  0  0
615715  1  0  0  0  0
616622  1  0  0  0  0
616716  1  0  0  0  0
617623  1  0  0  0  0
617711  1  0  0  0  0
618624  1  0  0  0  0
618712  1  0  0  0  0
619625  1  0  0  0  0
619713  1  0  0  0  0
620626  1  0  0  0  0
620714  1  0  0  0  0
627631  1  0  0  0  0
627842  1  0  0  0  0
627846  1  0  0  0  0
628632  1  0  0  0  0
628843  1  0  0  0  0
628848  1  0  0  0  0
629633  1  0  0  0  0
629844  1  0  0  0  0
629850  1  0  0  0  0
630634  1  0  0  0  0
630845  1  0  0  0  0
630854  1  0  0  0  0
631635  1  0  0  0  0
631685  1  0  0  0  0
632636  1  0  0  0  0
632687  1  0  0  0  0
633637  1  0  0  0  0
633688  1  0  0  0  0
634638  1  0  0  0  0
634690  1  0  0  0  0
635639  1  0  0  0  0
636640  1  0  0  0  0
637641  1  0  0  0  0
638642  1  0  0  0  0
639643  1  0  0  0  0
640644  1  0  0  0  0
641645  1  0  0  0  0
642646  1  0  0  0  0
643647  1  0  0  0  0
643679  1  0  0  0  0
644648  1  0  0  0  0
644681  1  0  0  0  0
645649  1  0  0  0  0
645682  1  0  0  0  0
646650  1  0  0  0  0
646684  1  0  0  0  0
647651  1  0  0  0  0
647673  1  0  0  0  0
648652  1  0  0  0  0
648675  1  0  0  0  0
649653  1  0  0  0  0
649676  1  0  0  0  0
650654  1  0  0  0  0
650678  1  0  0  0  0
651655  1  0  0  0  0
652656  1  0  0  0  0
653657  1  0  0  0  0
654658  1  0  0  0  0
655659  1  0  0  0  0
656660  1  0  0  0  0
657661  1  0  0  0  0
658662  1  0  0  0  0
659663  1  0  0  0  0
659667  1  0  0  0  0
660664  1  0  0  0  0
660669  1  0  0  0  0
661665  1  0  0  0  0
661670  1  0  0  0  0
662666  1  0  0  0  0
662672  1  0  0  0  0
663855  1  0  0  0  0
663861  1  0  0  0  0
664857  1  0  0  0  0
664862  1  0  0  0  0
665858  1  0  0  0  0
665864  1  0  0  0  0
666860  1  0  0  0  0
666866  1  0  0  0  0
667673  1  0  0  0  0
668674  1  0  0  0  0
669675  1  0  0  0  0
670676  1  0  0  0  0
671677  1  0  0  0  0
672678  1  0  0  0  0
679685  1  0  0  0  0
679719  1  0  0  0  0
680686  1  0  0  0  0
680717  1  0  0  0  0
681687  1  0  0  0  0
681718  1  0  0  0  0
682688  1  0  0  0  0
682722  1  0  0  0  0
683689  1  0  0  0  0
683720  1  0  0  0  0
684690  1  0  0  0  0
684721  1  0  0  0  0
M  END
$$$$
