no2_bdc_cu2_paddlewheel_pillared_sql_bipy
AtomForge visual export

514567  0  0  0  0            999 V2000
   10.9728    0.0017    5.4838 Cu  0  0  0  0  0  0  0  0  0  0  0  0
   10.9728   21.9876    5.4838 Cu  0  0  0  0  0  0  0  0  0  0  0  0
   10.9728    0.0017   19.2838 Cu  0  0  0  0  0  0  0  0  0  0  0  0
   10.9728   21.9876   19.2838 Cu  0  0  0  0  0  0  0  0  0  0  0  0
   10.9728   10.9946    5.4838 Cu  0  0  0  0  0  0  0  0  0  0  0  0
   10.9728   10.9946   19.2838 Cu  0  0  0  0  0  0  0  0  0  0  0  0
   -0.0202    0.0017    5.4838 Cu  0  0  0  0  0  0  0  0  0  0  0  0
   -0.0202   21.9876    5.4838 Cu  0  0  0  0  0  0  0  0  0  0  0  0
   21.9658    0.0017    5.4838 Cu  0  0  0  0  0  0  0  0  0  0  0  0
   21.9658   21.9876    5.4838 Cu  0  0  0  0  0  0  0  0  0  0  0  0
   -0.0202    0.0017   19.2838 Cu  0  0  0  0  0  0  0  0  0  0  0  0
   -0.0202   21.9876   19.2838 Cu  0  0  0  0  0  0  0  0  0  0  0  0
   21.9658    0.0017   19.2838 Cu  0  0  0  0  0  0  0  0  0  0  0  0
   21.9658   21.9876   19.2838 Cu  0  0  0  0  0  0  0  0  0  0  0  0
   -0.0202   10.9946    5.4838 Cu  0  0  0  0  0  0  0  0  0  0  0  0
   21.9658   10.9946    5.4838 Cu  0  0  0  0  0  0  0  0  0  0  0  0
   -0.0202   10.9946   19.2838 Cu  0  0  0  0  0  0  0  0  0  0  0  0
   21.9658   10.9946   19.2838 Cu  0  0  0  0  0  0  0  0  0  0  0  0
   10.9728    0.0017    8.3162 Cu  0  0  0  0  0  0  0  0  0  0  0  0
   10.9728   21.9876    8.3162 Cu  0  0  0  0  0  0  0  0  0  0  0  0
   10.9728    0.0017   22.1162 Cu  0  0  0  0  0  0  0  0  0  0  0  0
   10.9728   21.9876   22.1162 Cu  0  0  0  0  0  0  0  0  0  0  0  0
   10.9728   10.9946    8.3162 Cu  0  0  0  0  0  0  0  0  0  0  0  0
   10.9728   10.9946   22.1162 Cu  0  0  0  0  0  0  0  0  0  0  0  0
   -0.0201    0.0017    8.3162 Cu  0  0  0  0  0  0  0  0  0  0  0  0
   -0.0201   21.9876    8.3162 Cu  0  0  0  0  0  0  0  0  0  0  0  0
   21.9658    0.0017    8.3162 Cu  0  0  0  0  0  0  0  0  0  0  0  0
   21.9658   21.9876    8.3162 Cu  0  0  0  0  0  0  0  0  0  0  0  0
   -0.0201    0.0017   22.1162 Cu  0  0  0  0  0  0  0  0  0  0  0  0
   -0.0201   21.9876   22.1162 Cu  0  0  0  0  0  0  0  0  0  0  0  0
   21.9658    0.0017   22.1162 Cu  0  0  0  0  0  0  0  0  0  0  0  0
   21.9658   21.9876   22.1162 Cu  0  0  0  0  0  0  0  0  0  0  0  0
   -0.0201   10.9946    8.3162 Cu  0  0  0  0  0  0  0  0  0  0  0  0
   21.9658   10.9946    8.3162 Cu  0  0  0  0  0  0  0  0  0  0  0  0
   -0.0201   10.9946   22.1162 Cu  0  0  0  0  0  0  0  0  0  0  0  0
   21.9658   10.9946   22.1162 Cu  0  0  0  0  0  0  0  0  0  0  0  0
    4.2808    2.1630    6.9000 H   0  0  0  0  0  0  0  0  0  0  0  0
    4.2808    2.1630   20.7000 H   0  0  0  0  0  0  0  0  0  0  0  0
    4.2808   13.1559    6.9000 H   0  0  0  0  0  0  0  0  0  0  0  0
    4.2808   13.1559   20.7000 H   0  0  0  0  0  0  0  0  0  0  0  0
   15.2738    2.1630    6.9000 H   0  0  0  0  0  0  0  0  0  0  0  0
   15.2738    2.1630   20.7000 H   0  0  0  0  0  0  0  0  0  0  0  0
   15.2738   13.1559    6.9000 H   0  0  0  0  0  0  0  0  0  0  0  0
   15.2738   13.1559   20.7000 H   0  0  0  0  0  0  0  0  0  0  0  0
    4.2716    8.8781    6.9000 H   0  0  0  0  0  0  0  0  0  0  0  0
    4.2716    8.8781   20.7000 H   0  0  0  0  0  0  0  0  0  0  0  0
    4.2716   19.8710    6.9000 H   0  0  0  0  0  0  0  0  0  0  0  0
    4.2716   19.8710   20.7000 H   0  0  0  0  0  0  0  0  0  0  0  0
   15.2645    8.8781    6.9000 H   0  0  0  0  0  0  0  0  0  0  0  0
   15.2645    8.8781   20.7000 H   0  0  0  0  0  0  0  0  0  0  0  0
   15.2645   19.8710    6.9000 H   0  0  0  0  0  0  0  0  0  0  0  0
   15.2645   19.8710   20.7000 H   0  0  0  0  0  0  0  0  0  0  0  0
    6.7210    8.8818    6.9000 H   0  0  0  0  0  0  0  0  0  0  0  0
    6.7210    8.8818   20.7000 H   0  0  0  0  0  0  0  0  0  0  0  0
    6.7210   19.8748    6.9000 H   0  0  0  0  0  0  0  0  0  0  0  0
    6.7210   19.8748   20.7000 H   0  0  0  0  0  0  0  0  0  0  0  0
   17.7140    8.8818    6.9000 H   0  0  0  0  0  0  0  0  0  0  0  0
   17.7140    8.8818   20.7000 H   0  0  0  0  0  0  0  0  0  0  0  0
   17.7140   19.8748    6.9000 H   0  0  0  0  0  0  0  0  0  0  0  0
   17.7140   19.8748   20.7000 H   0  0  0  0  0  0  0  0  0  0  0  0
    8.8499    4.2849    6.9000 H   0  0  0  0  0  0  0  0  0  0  0  0
    8.8499    4.2849   20.7000 H   0  0  0  0  0  0  0  0  0  0  0  0
    8.8499   15.2778    6.9000 H   0  0  0  0  0  0  0  0  0  0  0  0
    8.8499   15.2778   20.7000 H   0  0  0  0  0  0  0  0  0  0  0  0
   19.8429    4.2849    6.9000 H   0  0  0  0  0  0  0  0  0  0  0  0
   19.8429    4.2849   20.7000 H   0  0  0  0  0  0  0  0  0  0  0  0
   19.8429   15.2778    6.9000 H   0  0  0  0  0  0  0  0  0  0  0  0
   19.8429   15.2778   20.7000 H   0  0  0  0  0  0  0  0  0  0  0  0
    2.1269    4.2831    6.9000 H   0  0  0  0  0  0  0  0  0  0  0  0
    2.1269    4.2831   20.7000 H   0  0  0  0  0  0  0  0  0  0  0  0
    2.1269   15.2761    6.9000 H   0  0  0  0  0  0  0  0  0  0  0  0
    2.1269   15.2761   20.7000 H   0  0  0  0  0  0  0  0  0  0  0  0
   13.1199    4.2831    6.9000 H   0  0  0  0  0  0  0  0  0  0  0  0
   13.1199    4.2831   20.7000 H   0  0  0  0  0  0  0  0  0  0  0  0
   13.1199   15.2761    6.9000 H   0  0  0  0  0  0  0  0  0  0  0  0
   13.1199   15.2761   20.7000 H   0  0  0  0  0  0  0  0  0  0  0  0
    2.1283    6.7322    6.9000 H   0  0  0  0  0  0  0  0  0  0  0  0
    2.1283    6.7322   20.7000 H   0  0  0  0  0  0  0  0  0  0  0  0
    2.1283   17.7251    6.9000 H   0  0  0  0  0  0  0  0  0  0  0  0
    2.1283   17.7251   20.7000 H   0  0  0  0  0  0  0  0  0  0  0  0
   13.1213    6.7322    6.9000 H   0  0  0  0  0  0  0  0  0  0  0  0
   13.1213    6.7322   20.7000 H   0  0  0  0  0  0  0  0  0  0  0  0
   13.1213   17.7251    6.9000 H   0  0  0  0  0  0  0  0  0  0  0  0
   13.1213   17.7251   20.7000 H   0  0  0  0  0  0  0  0  0  0  0  0
    6.9143    0.0015    6.9000 C   0  0  0  0  0  0  0  0  0  0  0  0
    6.9143   21.9875    6.9000 C   0  0  0  0  0  0  0  0  0  0  0  0
    6.9143    0.0015   20.7000 C   0  0  0  0  0  0  0  0  0  0  0  0
    6.9143   21.9875   20.7000 C   0  0  0  0  0  0  0  0  0  0  0  0
    6.9143   10.9945    6.9000 C   0  0  0  0  0  0  0  0  0  0  0  0
    6.9143   10.9945   20.7000 C   0  0  0  0  0  0  0  0  0  0  0  0
   17.9073    0.0015    6.9000 C   0  0  0  0  0  0  0  0  0  0  0  0
   17.9073   21.9875    6.9000 C   0  0  0  0  0  0  0  0  0  0  0  0
   17.9073    0.0015   20.7000 C   0  0  0  0  0  0  0  0  0  0  0  0
   17.9073   21.9875   20.7000 C   0  0  0  0  0  0  0  0  0  0  0  0
   17.9073   10.9945    6.9000 C   0  0  0  0  0  0  0  0  0  0  0  0
   17.9073   10.9945   20.7000 C   0  0  0  0  0  0  0  0  0  0  0  0
    6.1838    1.1889    6.9000 C   0  0  0  0  0  0  0  0  0  0  0  0
    6.1838    1.1889   20.7000 C   0  0  0  0  0  0  0  0  0  0  0  0
    6.1838   12.1819    6.9000 C   0  0  0  0  0  0  0  0  0  0  0  0
    6.1838   12.1819   20.7000 C   0  0  0  0  0  0  0  0  0  0  0  0
   17.1768    1.1889    6.9000 C   0  0  0  0  0  0  0  0  0  0  0  0
   17.1768    1.1889   20.7000 C   0  0  0  0  0  0  0  0  0  0  0  0
   17.1768   12.1819    6.9000 C   0  0  0  0  0  0  0  0  0  0  0  0
   17.1768   12.1819   20.7000 C   0  0  0  0  0  0  0  0  0  0  0  0
    4.7849    1.2077    6.9000 C   0  0  0  0  0  0  0  0  0  0  0  0
    4.7849    1.2077   20.7000 C   0  0  0  0  0  0  0  0  0  0  0  0
    4.7849   12.2007    6.9000 C   0  0  0  0  0  0  0  0  0  0  0  0
    4.7849   12.2007   20.7000 C   0  0  0  0  0  0  0  0  0  0  0  0
   15.7779    1.2077    6.9000 C   0  0  0  0  0  0  0  0  0  0  0  0
   15.7779    1.2077   20.7000 C   0  0  0  0  0  0  0  0  0  0  0  0
   15.7779   12.2007    6.9000 C   0  0  0  0  0  0  0  0  0  0  0  0
   15.7779   12.2007   20.7000 C   0  0  0  0  0  0  0  0  0  0  0  0
    4.0774    0.0200    6.9000 C   0  0  0  0  0  0  0  0  0  0  0  0
    4.0774   22.0060    6.9000 C   0  0  0  0  0  0  0  0  0  0  0  0
    4.0774    0.0200   20.7000 C   0  0  0  0  0  0  0  0  0  0  0  0
    4.0774   22.0060   20.7000 C   0  0  0  0  0  0  0  0  0  0  0  0
    4.0774   11.0130    6.9000 C   0  0  0  0  0  0  0  0  0  0  0  0
    4.0774   11.0130   20.7000 C   0  0  0  0  0  0  0  0  0  0  0  0
   15.0703    0.0200    6.9000 C   0  0  0  0  0  0  0  0  0  0  0  0
   15.0703   22.0060    6.9000 C   0  0  0  0  0  0  0  0  0  0  0  0
   15.0703    0.0200   20.7000 C   0  0  0  0  0  0  0  0  0  0  0  0
   15.0703   22.0060   20.7000 C   0  0  0  0  0  0  0  0  0  0  0  0
   15.0703   11.0130    6.9000 C   0  0  0  0  0  0  0  0  0  0  0  0
   15.0703   11.0130   20.7000 C   0  0  0  0  0  0  0  0  0  0  0  0
    4.7960    9.8209    6.9000 C   0  0  0  0  0  0  0  0  0  0  0  0
    4.7960    9.8209   20.7000 C   0  0  0  0  0  0  0  0  0  0  0  0
    4.7960   20.8139    6.9000 C   0  0  0  0  0  0  0  0  0  0  0  0
    4.7960   20.8139   20.7000 C   0  0  0  0  0  0  0  0  0  0  0  0
   15.7890    9.8209    6.9000 C   0  0  0  0  0  0  0  0  0  0  0  0
   15.7890    9.8209   20.7000 C   0  0  0  0  0  0  0  0  0  0  0  0
   15.7890   20.8139    6.9000 C   0  0  0  0  0  0  0  0  0  0  0  0
   15.7890   20.8139   20.7000 C   0  0  0  0  0  0  0  0  0  0  0  0
    6.1861    9.8154    6.9000 C   0  0  0  0  0  0  0  0  0  0  0  0
    6.1861    9.8154   20.7000 C   0  0  0  0  0  0  0  0  0  0  0  0
    6.1861   20.8084    6.9000 C   0  0  0  0  0  0  0  0  0  0  0  0
    6.1861   20.8084   20.7000 C   0  0  0  0  0  0  0  0  0  0  0  0
   17.1791    9.8154    6.9000 C   0  0  0  0  0  0  0  0  0  0  0  0
   17.1791    9.8154   20.7000 C   0  0  0  0  0  0  0  0  0  0  0  0
   17.1791   20.8084    6.9000 C   0  0  0  0  0  0  0  0  0  0  0  0
   17.1791   20.8084   20.7000 C   0  0  0  0  0  0  0  0  0  0  0  0
    8.4544   10.9929    6.9000 C   0  0  0  0  0  0  0  0  0  0  0  0
    8.4544   10.9929   20.7000 C   0  0  0  0  0  0  0  0  0  0  0  0
    8.4544   -0.0001    6.9000 C   0  0  0  0  0  0  0  0  0  0  0  0
    8.4544   21.9858    6.9000 C   0  0  0  0  0  0  0  0  0  0  0  0
    8.4544   -0.0001   20.7000 C   0  0  0  0  0  0  0  0  0  0  0  0
    8.4544   21.9858   20.7000 C   0  0  0  0  0  0  0  0  0  0  0  0
   19.4474   10.9929    6.9000 C   0  0  0  0  0  0  0  0  0  0  0  0
   19.4474   10.9929   20.7000 C   0  0  0  0  0  0  0  0  0  0  0  0
   19.4474   -0.0001    6.9000 C   0  0  0  0  0  0  0  0  0  0  0  0
   19.4474   21.9858    6.9000 C   0  0  0  0  0  0  0  0  0  0  0  0
   19.4474   -0.0001   20.7000 C   0  0  0  0  0  0  0  0  0  0  0  0
   19.4474   21.9858   20.7000 C   0  0  0  0  0  0  0  0  0  0  0  0
    2.5420    0.0137    6.9000 C   0  0  0  0  0  0  0  0  0  0  0  0
    2.5420   21.9996    6.9000 C   0  0  0  0  0  0  0  0  0  0  0  0
    2.5420    0.0137   20.7000 C   0  0  0  0  0  0  0  0  0  0  0  0
    2.5420   21.9996   20.7000 C   0  0  0  0  0  0  0  0  0  0  0  0
    2.5420   11.0066    6.9000 C   0  0  0  0  0  0  0  0  0  0  0  0
    2.5420   11.0066   20.7000 C   0  0  0  0  0  0  0  0  0  0  0  0
   13.5350    0.0137    6.9000 C   0  0  0  0  0  0  0  0  0  0  0  0
   13.5350   21.9996    6.9000 C   0  0  0  0  0  0  0  0  0  0  0  0
   13.5350    0.0137   20.7000 C   0  0  0  0  0  0  0  0  0  0  0  0
   13.5350   21.9996   20.7000 C   0  0  0  0  0  0  0  0  0  0  0  0
   13.5350   11.0066    6.9000 C   0  0  0  0  0  0  0  0  0  0  0  0
   13.5350   11.0066   20.7000 C   0  0  0  0  0  0  0  0  0  0  0  0
    0.0064    6.9266    6.9000 C   0  0  0  0  0  0  0  0  0  0  0  0
   21.9924    6.9266    6.9000 C   0  0  0  0  0  0  0  0  0  0  0  0
    0.0064    6.9266   20.7000 C   0  0  0  0  0  0  0  0  0  0  0  0
   21.9924    6.9266   20.7000 C   0  0  0  0  0  0  0  0  0  0  0  0
    0.0064   17.9196    6.9000 C   0  0  0  0  0  0  0  0  0  0  0  0
   21.9924   17.9196    6.9000 C   0  0  0  0  0  0  0  0  0  0  0  0
    0.0064   17.9196   20.7000 C   0  0  0  0  0  0  0  0  0  0  0  0
   21.9924   17.9196   20.7000 C   0  0  0  0  0  0  0  0  0  0  0  0
   10.9994    6.9266    6.9000 C   0  0  0  0  0  0  0  0  0  0  0  0
   10.9994    6.9266   20.7000 C   0  0  0  0  0  0  0  0  0  0  0  0
   10.9994   17.9196    6.9000 C   0  0  0  0  0  0  0  0  0  0  0  0
   10.9994   17.9196   20.7000 C   0  0  0  0  0  0  0  0  0  0  0  0
    9.8122    6.1939    6.9000 C   0  0  0  0  0  0  0  0  0  0  0  0
    9.8122    6.1939   20.7000 C   0  0  0  0  0  0  0  0  0  0  0  0
    9.8122   17.1869    6.9000 C   0  0  0  0  0  0  0  0  0  0  0  0
    9.8122   17.1869   20.7000 C   0  0  0  0  0  0  0  0  0  0  0  0
   20.8052    6.1939    6.9000 C   0  0  0  0  0  0  0  0  0  0  0  0
   20.8052    6.1939   20.7000 C   0  0  0  0  0  0  0  0  0  0  0  0
   20.8052   17.1869    6.9000 C   0  0  0  0  0  0  0  0  0  0  0  0
   20.8052   17.1869   20.7000 C   0  0  0  0  0  0  0  0  0  0  0  0
    9.7975    4.8002    6.9000 C   0  0  0  0  0  0  0  0  0  0  0  0
    9.7975    4.8002   20.7000 C   0  0  0  0  0  0  0  0  0  0  0  0
    9.7975   15.7931    6.9000 C   0  0  0  0  0  0  0  0  0  0  0  0
    9.7975   15.7931   20.7000 C   0  0  0  0  0  0  0  0  0  0  0  0
   20.7905    4.8002    6.9000 C   0  0  0  0  0  0  0  0  0  0  0  0
   20.7905    4.8002   20.7000 C   0  0  0  0  0  0  0  0  0  0  0  0
   20.7905   15.7931    6.9000 C   0  0  0  0  0  0  0  0  0  0  0  0
   20.7905   15.7931   20.7000 C   0  0  0  0  0  0  0  0  0  0  0  0
   10.9851    4.0903    6.9000 C   0  0  0  0  0  0  0  0  0  0  0  0
   10.9851    4.0903   20.7000 C   0  0  0  0  0  0  0  0  0  0  0  0
   10.9851   15.0833    6.9000 C   0  0  0  0  0  0  0  0  0  0  0  0
   10.9851   15.0833   20.7000 C   0  0  0  0  0  0  0  0  0  0  0  0
   -0.0078    4.0903    6.9000 C   0  0  0  0  0  0  0  0  0  0  0  0
   21.9781    4.0903    6.9000 C   0  0  0  0  0  0  0  0  0  0  0  0
   -0.0078    4.0903   20.7000 C   0  0  0  0  0  0  0  0  0  0  0  0
   21.9781    4.0903   20.7000 C   0  0  0  0  0  0  0  0  0  0  0  0
   -0.0078   15.0833    6.9000 C   0  0  0  0  0  0  0  0  0  0  0  0
   21.9781   15.0833    6.9000 C   0  0  0  0  0  0  0  0  0  0  0  0
   -0.0078   15.0833   20.7000 C   0  0  0  0  0  0  0  0  0  0  0  0
   21.9781   15.0833   20.7000 C   0  0  0  0  0  0  0  0  0  0  0  0
    1.1839    4.8086    6.9000 C   0  0  0  0  0  0  0  0  0  0  0  0
    1.1839    4.8086   20.7000 C   0  0  0  0  0  0  0  0  0  0  0  0
    1.1839   15.8016    6.9000 C   0  0  0  0  0  0  0  0  0  0  0  0
    1.1839   15.8016   20.7000 C   0  0  0  0  0  0  0  0  0  0  0  0
   12.1769    4.8086    6.9000 C   0  0  0  0  0  0  0  0  0  0  0  0
   12.1769    4.8086   20.7000 C   0  0  0  0  0  0  0  0  0  0  0  0
   12.1769   15.8016    6.9000 C   0  0  0  0  0  0  0  0  0  0  0  0
   12.1769   15.8016   20.7000 C   0  0  0  0  0  0  0  0  0  0  0  0
    1.1883    6.2034    6.9000 C   0  0  0  0  0  0  0  0  0  0  0  0
    1.1883    6.2034   20.7000 C   0  0  0  0  0  0  0  0  0  0  0  0
    1.1883   17.1964    6.9000 C   0  0  0  0  0  0  0  0  0  0  0  0
    1.1883   17.1964   20.7000 C   0  0  0  0  0  0  0  0  0  0  0  0
   12.1813    6.2034    6.9000 C   0  0  0  0  0  0  0  0  0  0  0  0
   12.1813    6.2034   20.7000 C   0  0  0  0  0  0  0  0  0  0  0  0
   12.1813   17.1964    6.9000 C   0  0  0  0  0  0  0  0  0  0  0  0
   12.1813   17.1964   20.7000 C   0  0  0  0  0  0  0  0  0  0  0  0
   10.9816    8.4637    6.9000 C   0  0  0  0  0  0  0  0  0  0  0  0
   10.9816    8.4637   20.7000 C   0  0  0  0  0  0  0  0  0  0  0  0
   10.9816   19.4566    6.9000 C   0  0  0  0  0  0  0  0  0  0  0  0
   10.9816   19.4566   20.7000 C   0  0  0  0  0  0  0  0  0  0  0  0
   -0.0114    8.4637    6.9000 C   0  0  0  0  0  0  0  0  0  0  0  0
   21.9746    8.4637    6.9000 C   0  0  0  0  0  0  0  0  0  0  0  0
   -0.0114    8.4637   20.7000 C   0  0  0  0  0  0  0  0  0  0  0  0
   21.9746    8.4637   20.7000 C   0  0  0  0  0  0  0  0  0  0  0  0
   -0.0114   19.4566    6.9000 C   0  0  0  0  0  0  0  0  0  0  0  0
   21.9746   19.4566    6.9000 C   0  0  0  0  0  0  0  0  0  0  0  0
   -0.0114   19.4566   20.7000 C   0  0  0  0  0  0  0  0  0  0  0  0
   21.9746   19.4566   20.7000 C   0  0  0  0  0  0  0  0  0  0  0  0
   10.9740    2.5512    6.9000 C   0  0  0  0  0  0  0  0  0  0  0  0
   10.9740    2.5512   20.7000 C   0  0  0  0  0  0  0  0  0  0  0  0
   10.9740   13.5441    6.9000 C   0  0  0  0  0  0  0  0  0  0  0  0
   10.9740   13.5441   20.7000 C   0  0  0  0  0  0  0  0  0  0  0  0
   -0.0190    2.5512    6.9000 C   0  0  0  0  0  0  0  0  0  0  0  0
   21.9670    2.5512    6.9000 C   0  0  0  0  0  0  0  0  0  0  0  0
   -0.0190    2.5512   20.7000 C   0  0  0  0  0  0  0  0  0  0  0  0
   21.9670    2.5512   20.7000 C   0  0  0  0  0  0  0  0  0  0  0  0
   -0.0190   13.5441    6.9000 C   0  0  0  0  0  0  0  0  0  0  0  0
   21.9670   13.5441    6.9000 C   0  0  0  0  0  0  0  0  0  0  0  0
   -0.0190   13.5441   20.7000 C   0  0  0  0  0  0  0  0  0  0  0  0
   21.9670   13.5441   20.7000 C   0  0  0  0  0  0  0  0  0  0  0  0
   10.9921    0.0000   11.8253 C   0  0  0  0  0  0  0  0  0  0  0  0
   10.9921   21.9860   11.8253 C   0  0  0  0  0  0  0  0  0  0  0  0
   10.9921    0.0000   25.6253 C   0  0  0  0  0  0  0  0  0  0  0  0
   10.9921   21.9860   25.6253 C   0  0  0  0  0  0  0  0  0  0  0  0
   10.9921   10.9930   11.8253 C   0  0  0  0  0  0  0  0  0  0  0  0
   10.9921   10.9930   25.6253 C   0  0  0  0  0  0  0  0  0  0  0  0
   -0.0008    0.0000   11.8253 C   0  0  0  0  0  0  0  0  0  0  0  0
   -0.0008   21.9860   11.8253 C   0  0  0  0  0  0  0  0  0  0  0  0
   21.9851    0.0000   11.8253 C   0  0  0  0  0  0  0  0  0  0  0  0
   21.9851   21.9860   11.8253 C   0  0  0  0  0  0  0  0  0  0  0  0
   -0.0008    0.0000   25.6253 C   0  0  0  0  0  0  0  0  0  0  0  0
   -0.0008   21.9860   25.6253 C   0  0  0  0  0  0  0  0  0  0  0  0
   21.9851    0.0000   25.6253 C   0  0  0  0  0  0  0  0  0  0  0  0
   21.9851   21.9860   25.6253 C   0  0  0  0  0  0  0  0  0  0  0  0
   -0.0008   10.9930   11.8253 C   0  0  0  0  0  0  0  0  0  0  0  0
   21.9851   10.9930   11.8253 C   0  0  0  0  0  0  0  0  0  0  0  0
   -0.0008   10.9930   25.6253 C   0  0  0  0  0  0  0  0  0  0  0  0
   21.9851   10.9930   25.6253 C   0  0  0  0  0  0  0  0  0  0  0  0
   10.9915    0.0001   13.1907 C   0  0  0  0  0  0  0  0  0  0  0  0
   10.9915   21.9861   13.1907 C   0  0  0  0  0  0  0  0  0  0  0  0
   10.9915    0.0001   -0.6093 C   0  0  0  0  0  0  0  0  0  0  0  0
   10.9915    0.0001   26.9907 C   0  0  0  0  0  0  0  0  0  0  0  0
   10.9915   21.9861   -0.6093 C   0  0  0  0  0  0  0  0  0  0  0  0
   10.9915   21.9861   26.9907 C   0  0  0  0  0  0  0  0  0  0  0  0
   10.9915   10.9931   13.1907 C   0  0  0  0  0  0  0  0  0  0  0  0
   10.9915   10.9931   -0.6093 C   0  0  0  0  0  0  0  0  0  0  0  0
   10.9915   10.9931   26.9907 C   0  0  0  0  0  0  0  0  0  0  0  0
   -0.0015    0.0001   13.1907 C   0  0  0  0  0  0  0  0  0  0  0  0
   -0.0015   21.9861   13.1907 C   0  0  0  0  0  0  0  0  0  0  0  0
   21.9845    0.0001   13.1907 C   0  0  0  0  0  0  0  0  0  0  0  0
   21.9845   21.9861   13.1907 C   0  0  0  0  0  0  0  0  0  0  0  0
   -0.0015    0.0001   -0.6093 C   0  0  0  0  0  0  0  0  0  0  0  0
   -0.0015    0.0001   26.9907 C   0  0  0  0  0  0  0  0  0  0  0  0
   -0.0015   21.9861   -0.6093 C   0  0  0  0  0  0  0  0  0  0  0  0
   -0.0015   21.9861   26.9907 C   0  0  0  0  0  0  0  0  0  0  0  0
   21.9845    0.0001   -0.6093 C   0  0  0  0  0  0  0  0  0  0  0  0
   21.9845    0.0001   26.9907 C   0  0  0  0  0  0  0  0  0  0  0  0
   21.9845   21.9861   -0.6093 C   0  0  0  0  0  0  0  0  0  0  0  0
   21.9845   21.9861   26.9907 C   0  0  0  0  0  0  0  0  0  0  0  0
   -0.0015   10.9931   13.1907 C   0  0  0  0  0  0  0  0  0  0  0  0
   21.9845   10.9931   13.1907 C   0  0  0  0  0  0  0  0  0  0  0  0
   -0.0015   10.9931   -0.6093 C   0  0  0  0  0  0  0  0  0  0  0  0
   -0.0015   10.9931   26.9907 C   0  0  0  0  0  0  0  0  0  0  0  0
   21.9845   10.9931   -0.6093 C   0  0  0  0  0  0  0  0  0  0  0  0
   21.9845   10.9931   26.9907 C   0  0  0  0  0  0  0  0  0  0  0  0
   10.9915    0.0001    0.6093 C   0  0  0  0  0  0  0  0  0  0  0  0
   10.9915    0.0001   28.2093 C   0  0  0  0  0  0  0  0  0  0  0  0
   10.9915   21.9861    0.6093 C   0  0  0  0  0  0  0  0  0  0  0  0
   10.9915   21.9861   28.2093 C   0  0  0  0  0  0  0  0  0  0  0  0
   10.9915    0.0001   14.4093 C   0  0  0  0  0  0  0  0  0  0  0  0
   10.9915   21.9861   14.4093 C   0  0  0  0  0  0  0  0  0  0  0  0
   10.9915   10.9931    0.6093 C   0  0  0  0  0  0  0  0  0  0  0  0
   10.9915   10.9931   28.2093 C   0  0  0  0  0  0  0  0  0  0  0  0
   10.9915   10.9931   14.4093 C   0  0  0  0  0  0  0  0  0  0  0  0
   -0.0015    0.0001    0.6093 C   0  0  0  0  0  0  0  0  0  0  0  0
   -0.0015    0.0001   28.2093 C   0  0  0  0  0  0  0  0  0  0  0  0
   -0.0015   21.9861    0.6093 C   0  0  0  0  0  0  0  0  0  0  0  0
   -0.0015   21.9861   28.2093 C   0  0  0  0  0  0  0  0  0  0  0  0
   21.9845    0.0001    0.6093 C   0  0  0  0  0  0  0  0  0  0  0  0
   21.9845    0.0001   28.2093 C   0  0  0  0  0  0  0  0  0  0  0  0
   21.9845   21.9861    0.6093 C   0  0  0  0  0  0  0  0  0  0  0  0
   21.9845   21.9861   28.2093 C   0  0  0  0  0  0  0  0  0  0  0  0
   -0.0015    0.0001   14.4093 C   0  0  0  0  0  0  0  0  0  0  0  0
   -0.0015   21.9861   14.4093 C   0  0  0  0  0  0  0  0  0  0  0  0
   21.9845    0.0001   14.4093 C   0  0  0  0  0  0  0  0  0  0  0  0
   21.9845   21.9861   14.4093 C   0  0  0  0  0  0  0  0  0  0  0  0
   -0.0015   10.9931    0.6093 C   0  0  0  0  0  0  0  0  0  0  0  0
   -0.0015   10.9931   28.2093 C   0  0  0  0  0  0  0  0  0  0  0  0
   21.9845   10.9931    0.6093 C   0  0  0  0  0  0  0  0  0  0  0  0
   21.9845   10.9931   28.2093 C   0  0  0  0  0  0  0  0  0  0  0  0
   -0.0015   10.9931   14.4093 C   0  0  0  0  0  0  0  0  0  0  0  0
   21.9845   10.9931   14.4093 C   0  0  0  0  0  0  0  0  0  0  0  0
   10.9921    0.0000    1.9742 C   0  0  0  0  0  0  0  0  0  0  0  0
   10.9921   21.9860    1.9742 C   0  0  0  0  0  0  0  0  0  0  0  0
   10.9921    0.0000   15.7742 C   0  0  0  0  0  0  0  0  0  0  0  0
   10.9921   21.9860   15.7742 C   0  0  0  0  0  0  0  0  0  0  0  0
   10.9921   10.9930    1.9742 C   0  0  0  0  0  0  0  0  0  0  0  0
   10.9921   10.9930   15.7742 C   0  0  0  0  0  0  0  0  0  0  0  0
   -0.0008    0.0000    1.9742 C   0  0  0  0  0  0  0  0  0  0  0  0
   -0.0008   21.9860    1.9742 C   0  0  0  0  0  0  0  0  0  0  0  0
   21.9851    0.0000    1.9742 C   0  0  0  0  0  0  0  0  0  0  0  0
   21.9851   21.9860    1.9742 C   0  0  0  0  0  0  0  0  0  0  0  0
   -0.0008    0.0000   15.7742 C   0  0  0  0  0  0  0  0  0  0  0  0
   -0.0008   21.9860   15.7742 C   0  0  0  0  0  0  0  0  0  0  0  0
   21.9851    0.0000   15.7742 C   0  0  0  0  0  0  0  0  0  0  0  0
   21.9851   21.9860   15.7742 C   0  0  0  0  0  0  0  0  0  0  0  0
   -0.0008   10.9930    1.9742 C   0  0  0  0  0  0  0  0  0  0  0  0
   21.9851   10.9930    1.9742 C   0  0  0  0  0  0  0  0  0  0  0  0
   -0.0008   10.9930   15.7742 C   0  0  0  0  0  0  0  0  0  0  0  0
   21.9851   10.9930   15.7742 C   0  0  0  0  0  0  0  0  0  0  0  0
    6.8878    2.4346    6.9000 N   0  0  0  0  0  0  0  0  0  0  0  0
    6.8878    2.4346   20.7000 N   0  0  0  0  0  0  0  0  0  0  0  0
    6.8878   13.4276    6.9000 N   0  0  0  0  0  0  0  0  0  0  0  0
    6.8878   13.4276   20.7000 N   0  0  0  0  0  0  0  0  0  0  0  0
   17.8807    2.4346    6.9000 N   0  0  0  0  0  0  0  0  0  0  0  0
   17.8807    2.4346   20.7000 N   0  0  0  0  0  0  0  0  0  0  0  0
   17.8807   13.4276    6.9000 N   0  0  0  0  0  0  0  0  0  0  0  0
   17.8807   13.4276   20.7000 N   0  0  0  0  0  0  0  0  0  0  0  0
    8.5695    6.9034    6.9000 N   0  0  0  0  0  0  0  0  0  0  0  0
    8.5695    6.9034   20.7000 N   0  0  0  0  0  0  0  0  0  0  0  0
    8.5695   17.8964    6.9000 N   0  0  0  0  0  0  0  0  0  0  0  0
    8.5695   17.8964   20.7000 N   0  0  0  0  0  0  0  0  0  0  0  0
   19.5625    6.9034    6.9000 N   0  0  0  0  0  0  0  0  0  0  0  0
   19.5625    6.9034   20.7000 N   0  0  0  0  0  0  0  0  0  0  0  0
   19.5625   17.8964    6.9000 N   0  0  0  0  0  0  0  0  0  0  0  0
   19.5625   17.8964   20.7000 N   0  0  0  0  0  0  0  0  0  0  0  0
    0.0015   10.9927   10.6758 N   0  0  0  0  0  0  0  0  0  0  0  0
   21.9875   10.9927   10.6758 N   0  0  0  0  0  0  0  0  0  0  0  0
    0.0015   10.9927   24.4758 N   0  0  0  0  0  0  0  0  0  0  0  0
   21.9875   10.9927   24.4758 N   0  0  0  0  0  0  0  0  0  0  0  0
    0.0015   -0.0003   10.6758 N   0  0  0  0  0  0  0  0  0  0  0  0
    0.0015   21.9857   10.6758 N   0  0  0  0  0  0  0  0  0  0  0  0
   21.9875   -0.0003   10.6758 N   0  0  0  0  0  0  0  0  0  0  0  0
   21.9875   21.9857   10.6758 N   0  0  0  0  0  0  0  0  0  0  0  0
    0.0015   -0.0003   24.4758 N   0  0  0  0  0  0  0  0  0  0  0  0
    0.0015   21.9857   24.4758 N   0  0  0  0  0  0  0  0  0  0  0  0
   21.9875   -0.0003   24.4758 N   0  0  0  0  0  0  0  0  0  0  0  0
   21.9875   21.9857   24.4758 N   0  0  0  0  0  0  0  0  0  0  0  0
   10.9945   10.9927   10.6758 N   0  0  0  0  0  0  0  0  0  0  0  0
   10.9945   10.9927   24.4758 N   0  0  0  0  0  0  0  0  0  0  0  0
   10.9945   -0.0003   10.6758 N   0  0  0  0  0  0  0  0  0  0  0  0
   10.9945   21.9857   10.6758 N   0  0  0  0  0  0  0  0  0  0  0  0
   10.9945   -0.0003   24.4758 N   0  0  0  0  0  0  0  0  0  0  0  0
   10.9945   21.9857   24.4758 N   0  0  0  0  0  0  0  0  0  0  0  0
    0.0015   10.9927    3.1246 N   0  0  0  0  0  0  0  0  0  0  0  0
   21.9875   10.9927    3.1246 N   0  0  0  0  0  0  0  0  0  0  0  0
    0.0015   10.9927   16.9246 N   0  0  0  0  0  0  0  0  0  0  0  0
   21.9875   10.9927   16.9246 N   0  0  0  0  0  0  0  0  0  0  0  0
    0.0015   -0.0003    3.1246 N   0  0  0  0  0  0  0  0  0  0  0  0
    0.0015   21.9857    3.1246 N   0  0  0  0  0  0  0  0  0  0  0  0
   21.9875   -0.0003    3.1246 N   0  0  0  0  0  0  0  0  0  0  0  0
   21.9875   21.9857    3.1246 N   0  0  0  0  0  0  0  0  0  0  0  0
    0.0015   -0.0003   16.9246 N   0  0  0  0  0  0  0  0  0  0  0  0
    0.0015   21.9857   16.9246 N   0  0  0  0  0  0  0  0  0  0  0  0
   21.9875   -0.0003   16.9246 N   0  0  0  0  0  0  0  0  0  0  0  0
   21.9875   21.9857   16.9246 N   0  0  0  0  0  0  0  0  0  0  0  0
   10.9945   10.9927    3.1246 N   0  0  0  0  0  0  0  0  0  0  0  0
   10.9945   10.9927   16.9246 N   0  0  0  0  0  0  0  0  0  0  0  0
   10.9945   -0.0003    3.1246 N   0  0  0  0  0  0  0  0  0  0  0  0
   10.9945   21.9857    3.1246 N   0  0  0  0  0  0  0  0  0  0  0  0
   10.9945   -0.0003   16.9246 N   0  0  0  0  0  0  0  0  0  0  0  0
   10.9945   21.9857   16.9246 N   0  0  0  0  0  0  0  0  0  0  0  0
    8.9788   10.9718    8.0272 O   0  0  0  0  0  0  0  0  0  0  0  0
    8.9788   10.9718   21.8272 O   0  0  0  0  0  0  0  0  0  0  0  0
    8.9788   -0.0211    8.0272 O   0  0  0  0  0  0  0  0  0  0  0  0
    8.9788   21.9648    8.0272 O   0  0  0  0  0  0  0  0  0  0  0  0
    8.9788   -0.0211   21.8272 O   0  0  0  0  0  0  0  0  0  0  0  0
    8.9788   21.9648   21.8272 O   0  0  0  0  0  0  0  0  0  0  0  0
   19.9718   10.9718    8.0272 O   0  0  0  0  0  0  0  0  0  0  0  0
   19.9718   10.9718   21.8272 O   0  0  0  0  0  0  0  0  0  0  0  0
   19.9718   -0.0211    8.0272 O   0  0  0  0  0  0  0  0  0  0  0  0
   19.9718   21.9648    8.0272 O   0  0  0  0  0  0  0  0  0  0  0  0
   19.9718   -0.0211   21.8272 O   0  0  0  0  0  0  0  0  0  0  0  0
   19.9718   21.9648   21.8272 O   0  0  0  0  0  0  0  0  0  0  0  0
    8.9788   10.9718    5.7728 O   0  0  0  0  0  0  0  0  0  0  0  0
    8.9788   10.9718   19.5728 O   0  0  0  0  0  0  0  0  0  0  0  0
    8.9788   -0.0211    5.7728 O   0  0  0  0  0  0  0  0  0  0  0  0
    8.9788   21.9648    5.7728 O   0  0  0  0  0  0  0  0  0  0  0  0
    8.9788   -0.0211   19.5728 O   0  0  0  0  0  0  0  0  0  0  0  0
    8.9788   21.9648   19.5728 O   0  0  0  0  0  0  0  0  0  0  0  0
   19.9718   10.9718    5.7728 O   0  0  0  0  0  0  0  0  0  0  0  0
   19.9718   10.9718   19.5728 O   0  0  0  0  0  0  0  0  0  0  0  0
   19.9718   -0.0211    5.7728 O   0  0  0  0  0  0  0  0  0  0  0  0
   19.9718   21.9648    5.7728 O   0  0  0  0  0  0  0  0  0  0  0  0
   19.9718   -0.0211   19.5728 O   0  0  0  0  0  0  0  0  0  0  0  0
   19.9718   21.9648   19.5728 O   0  0  0  0  0  0  0  0  0  0  0  0
    2.0093    0.0112    8.0241 O   0  0  0  0  0  0  0  0  0  0  0  0
    2.0093   21.9971    8.0241 O   0  0  0  0  0  0  0  0  0  0  0  0
    2.0093    0.0112   21.8241 O   0  0  0  0  0  0  0  0  0  0  0  0
    2.0093   21.9971   21.8241 O   0  0  0  0  0  0  0  0  0  0  0  0
    2.0093   11.0041    8.0241 O   0  0  0  0  0  0  0  0  0  0  0  0
    2.0093   11.0041   21.8241 O   0  0  0  0  0  0  0  0  0  0  0  0
   13.0022    0.0112    8.0241 O   0  0  0  0  0  0  0  0  0  0  0  0
   13.0022   21.9971    8.0241 O   0  0  0  0  0  0  0  0  0  0  0  0
   13.0022    0.0112   21.8241 O   0  0  0  0  0  0  0  0  0  0  0  0
   13.0022   21.9971   21.8241 O   0  0  0  0  0  0  0  0  0  0  0  0
   13.0022   11.0041    8.0241 O   0  0  0  0  0  0  0  0  0  0  0  0
   13.0022   11.0041   21.8241 O   0  0  0  0  0  0  0  0  0  0  0  0
    2.0093    0.0112    5.7759 O   0  0  0  0  0  0  0  0  0  0  0  0
    2.0093   21.9971    5.7759 O   0  0  0  0  0  0  0  0  0  0  0  0
    2.0093    0.0112   19.5759 O   0  0  0  0  0  0  0  0  0  0  0  0
    2.0093   21.9971   19.5759 O   0  0  0  0  0  0  0  0  0  0  0  0
    2.0093   11.0041    5.7759 O   0  0  0  0  0  0  0  0  0  0  0  0
    2.0093   11.0041   19.5759 O   0  0  0  0  0  0  0  0  0  0  0  0
   13.0022    0.0112    5.7759 O   0  0  0  0  0  0  0  0  0  0  0  0
   13.0022   21.9971    5.7759 O   0  0  0  0  0  0  0  0  0  0  0  0
   13.0022    0.0112   19.5759 O   0  0  0  0  0  0  0  0  0  0  0  0
   13.0022   21.9971   19.5759 O   0  0  0  0  0  0  0  0  0  0  0  0
   13.0022   11.0041    5.7759 O   0  0  0  0  0  0  0  0  0  0  0  0
   13.0022   11.0041   19.5759 O   0  0  0  0  0  0  0  0  0  0  0  0
    6.2515    3.4623    6.9000 O   0  0  0  0  0  0  0  0  0  0  0  0
    6.2515    3.4623   20.7000 O   0  0  0  0  0  0  0  0  0  0  0  0
    6.2515   14.4553    6.9000 O   0  0  0  0  0  0  0  0  0  0  0  0
    6.2515   14.4553   20.7000 O   0  0  0  0  0  0  0  0  0  0  0  0
   17.2445    3.4623    6.9000 O   0  0  0  0  0  0  0  0  0  0  0  0
   17.2445    3.4623   20.7000 O   0  0  0  0  0  0  0  0  0  0  0  0
   17.2445   14.4553    6.9000 O   0  0  0  0  0  0  0  0  0  0  0  0
   17.2445   14.4553   20.7000 O   0  0  0  0  0  0  0  0  0  0  0  0
    8.1042    2.3846    6.9000 O   0  0  0  0  0  0  0  0  0  0  0  0
    8.1042    2.3846   20.7000 O   0  0  0  0  0  0  0  0  0  0  0  0
    8.1042   13.3775    6.9000 O   0  0  0  0  0  0  0  0  0  0  0  0
    8.1042   13.3775   20.7000 O   0  0  0  0  0  0  0  0  0  0  0  0
   19.0972    2.3846    6.9000 O   0  0  0  0  0  0  0  0  0  0  0  0
   19.0972    2.3846   20.7000 O   0  0  0  0  0  0  0  0  0  0  0  0
   19.0972   13.3775    6.9000 O   0  0  0  0  0  0  0  0  0  0  0  0
   19.0972   13.3775   20.7000 O   0  0  0  0  0  0  0  0  0  0  0  0
    0.0249    8.9895    8.0277 O   0  0  0  0  0  0  0  0  0  0  0  0
   22.0108    8.9895    8.0277 O   0  0  0  0  0  0  0  0  0  0  0  0
    0.0249    8.9895   21.8277 O   0  0  0  0  0  0  0  0  0  0  0  0
   22.0108    8.9895   21.8277 O   0  0  0  0  0  0  0  0  0  0  0  0
    0.0249   19.9824    8.0277 O   0  0  0  0  0  0  0  0  0  0  0  0
   22.0108   19.9824    8.0277 O   0  0  0  0  0  0  0  0  0  0  0  0
    0.0249   19.9824   21.8277 O   0  0  0  0  0  0  0  0  0  0  0  0
   22.0108   19.9824   21.8277 O   0  0  0  0  0  0  0  0  0  0  0  0
   11.0179    8.9895    8.0277 O   0  0  0  0  0  0  0  0  0  0  0  0
   11.0179    8.9895   21.8277 O   0  0  0  0  0  0  0  0  0  0  0  0
   11.0179   19.9824    8.0277 O   0  0  0  0  0  0  0  0  0  0  0  0
   11.0179   19.9824   21.8277 O   0  0  0  0  0  0  0  0  0  0  0  0
    0.0249    8.9895    5.7723 O   0  0  0  0  0  0  0  0  0  0  0  0
   22.0108    8.9895    5.7723 O   0  0  0  0  0  0  0  0  0  0  0  0
    0.0249    8.9895   19.5723 O   0  0  0  0  0  0  0  0  0  0  0  0
   22.0108    8.9895   19.5723 O   0  0  0  0  0  0  0  0  0  0  0  0
    0.0249   19.9824    5.7723 O   0  0  0  0  0  0  0  0  0  0  0  0
   22.0108   19.9824    5.7723 O   0  0  0  0  0  0  0  0  0  0  0  0
    0.0249   19.9824   19.5723 O   0  0  0  0  0  0  0  0  0  0  0  0
   22.0108   19.9824   19.5723 O   0  0  0  0  0  0  0  0  0  0  0  0
   11.0179    8.9895    5.7723 O   0  0  0  0  0  0  0  0  0  0  0  0
   11.0179    8.9895   19.5723 O   0  0  0  0  0  0  0  0  0  0  0  0
   11.0179   19.9824    5.7723 O   0  0  0  0  0  0  0  0  0  0  0  0
   11.0179   19.9824   19.5723 O   0  0  0  0  0  0  0  0  0  0  0  0
   10.9855    2.0194    8.0237 O   0  0  0  0  0  0  0  0  0  0  0  0
   10.9855    2.0194   21.8237 O   0  0  0  0  0  0  0  0  0  0  0  0
   10.9855   13.0124    8.0237 O   0  0  0  0  0  0  0  0  0  0  0  0
   10.9855   13.0124   21.8237 O   0  0  0  0  0  0  0  0  0  0  0  0
   -0.0075    2.0194    8.0237 O   0  0  0  0  0  0  0  0  0  0  0  0
   21.9785    2.0194    8.0237 O   0  0  0  0  0  0  0  0  0  0  0  0
   -0.0075    2.0194   21.8237 O   0  0  0  0  0  0  0  0  0  0  0  0
   21.9785    2.0194   21.8237 O   0  0  0  0  0  0  0  0  0  0  0  0
   -0.0075   13.0124    8.0237 O   0  0  0  0  0  0  0  0  0  0  0  0
   21.9785   13.0124    8.0237 O   0  0  0  0  0  0  0  0  0  0  0  0
   -0.0075   13.0124   21.8237 O   0  0  0  0  0  0  0  0  0  0  0  0
   21.9785   13.0124   21.8237 O   0  0  0  0  0  0  0  0  0  0  0  0
   10.9855    2.0195    5.7763 O   0  0  0  0  0  0  0  0  0  0  0  0
   10.9855    2.0195   19.5763 O   0  0  0  0  0  0  0  0  0  0  0  0
   10.9855   13.0124    5.7763 O   0  0  0  0  0  0  0  0  0  0  0  0
   10.9855   13.0124   19.5763 O   0  0  0  0  0  0  0  0  0  0  0  0
   -0.0075    2.0195    5.7763 O   0  0  0  0  0  0  0  0  0  0  0  0
   21.9785    2.0195    5.7763 O   0  0  0  0  0  0  0  0  0  0  0  0
   -0.0075    2.0195   19.5763 O   0  0  0  0  0  0  0  0  0  0  0  0
   21.9785    2.0195   19.5763 O   0  0  0  0  0  0  0  0  0  0  0  0
   -0.0075   13.0124    5.7763 O   0  0  0  0  0  0  0  0  0  0  0  0
   21.9785   13.0124    5.7763 O   0  0  0  0  0  0  0  0  0  0  0  0
   -0.0075   13.0124   19.5763 O   0  0  0  0  0  0  0  0  0  0  0  0
   21.9785   13.0124   19.5763 O   0  0  0  0  0  0  0  0  0  0  0  0
    7.5311    6.2860    6.9000 O   0  0  0  0  0  0  0  0  0  0  0  0
    7.5311    6.2860   20.7000 O   0  0  0  0  0  0  0  0  0  0  0  0
    7.5311   17.2790    6.9000 O   0  0  0  0  0  0  0  0  0  0  0  0
    7.5311   17.2790   20.7000 O   0  0  0  0  0  0  0  0  0  0  0  0
   18.5240    6.2860    6.9000 O   0  0  0  0  0  0  0  0  0  0  0  0
   18.5240    6.2860   20.7000 O   0  0  0  0  0  0  0  0  0  0  0  0
   18.5240   17.2790    6.9000 O   0  0  0  0  0  0  0  0  0  0  0  0
   18.5240   17.2790   20.7000 O   0  0  0  0  0  0  0  0  0  0  0  0
    8.6304    8.1207    6.9000 O   0  0  0  0  0  0  0  0  0  0  0  0
    8.6304    8.1207   20.7000 O   0  0  0  0  0  0  0  0  0  0  0  0
    8.6304   19.1137    6.9000 O   0  0  0  0  0  0  0  0  0  0  0  0
    8.6304   19.1137   20.7000 O   0  0  0  0  0  0  0  0  0  0  0  0
   19.6233    8.1207    6.9000 O   0  0  0  0  0  0  0  0  0  0  0  0
   19.6233    8.1207   20.7000 O   0  0  0  0  0  0  0  0  0  0  0  0
   19.6233   19.1137    6.9000 O   0  0  0  0  0  0  0  0  0  0  0  0
   19.6233   19.1137   20.7000 O   0  0  0  0  0  0  0  0  0  0  0  0
  1383  1  0  0  0  0
  1401  1  0  0  0  0
  1429  1  0  0  0  0
  1487  1  0  0  0  0
  2384  1  0  0  0  0
  2402  1  0  0  0  0
  2430  1  0  0  0  0
  2473  1  0  0  0  0
  3385  1  0  0  0  0
  3403  1  0  0  0  0
  3431  1  0  0  0  0
  3488  1  0  0  0  0
  4386  1  0  0  0  0
  4404  1  0  0  0  0
  4432  1  0  0  0  0
  4474  1  0  0  0  0
  5381  1  0  0  0  0
  5399  1  0  0  0  0
  5433  1  0  0  0  0
  5471  1  0  0  0  0
  5489  1  0  0  0  0
  6382  1  0  0  0  0
  6400  1  0  0  0  0
  6434  1  0  0  0  0
  6472  1  0  0  0  0
  6490  1  0  0  0  0
  7373  1  0  0  0  0
  7423  1  0  0  0  0
  7491  1  0  0  0  0
  8374  1  0  0  0  0
  8424  1  0  0  0  0
  8467  1  0  0  0  0
  9375  1  0  0  0  0
  9407  1  0  0  0  0
  9492  1  0  0  0  0
 10376  1  0  0  0  0
 10408  1  0  0  0  0
 10468  1  0  0  0  0
 11377  1  0  0  0  0
 11425  1  0  0  0  0
 11493  1  0  0  0  0
 12378  1  0  0  0  0
 12426  1  0  0  0  0
 12469  1  0  0  0  0
 13379  1  0  0  0  0
 13409  1  0  0  0  0
 13494  1  0  0  0  0
 14380  1  0  0  0  0
 14410  1  0  0  0  0
 14470  1  0  0  0  0
 15369  1  0  0  0  0
 15427  1  0  0  0  0
 15463  1  0  0  0  0
 15495  1  0  0  0  0
 16370  1  0  0  0  0
 16405  1  0  0  0  0
 16464  1  0  0  0  0
 16496  1  0  0  0  0
 17371  1  0  0  0  0
 17428  1  0  0  0  0
 17465  1  0  0  0  0
 17497  1  0  0  0  0
 18372  1  0  0  0  0
 18406  1  0  0  0  0
 18466  1  0  0  0  0
 18498  1  0  0  0  0
 19365  1  0  0  0  0
 19389  1  0  0  0  0
 19417  1  0  0  0  0
 19475  1  0  0  0  0
 20366  1  0  0  0  0
 20390  1  0  0  0  0
 20418  1  0  0  0  0
 20461  1  0  0  0  0
 21367  1  0  0  0  0
 21391  1  0  0  0  0
 21419  1  0  0  0  0
 21476  1  0  0  0  0
 22368  1  0  0  0  0
 22392  1  0  0  0  0
 22420  1  0  0  0  0
 22462  1  0  0  0  0
 23363  1  0  0  0  0
 23387  1  0  0  0  0
 23421  1  0  0  0  0
 23459  1  0  0  0  0
 23477  1  0  0  0  0
 24364  1  0  0  0  0
 24388  1  0  0  0  0
 24422  1  0  0  0  0
 24460  1  0  0  0  0
 24478  1  0  0  0  0
 25355  1  0  0  0  0
 25411  1  0  0  0  0
 25479  1  0  0  0  0
 26356  1  0  0  0  0
 26412  1  0  0  0  0
 26455  1  0  0  0  0
 27357  1  0  0  0  0
 27395  1  0  0  0  0
 27480  1  0  0  0  0
 28358  1  0  0  0  0
 28396  1  0  0  0  0
 28456  1  0  0  0  0
 29359  1  0  0  0  0
 29413  1  0  0  0  0
 29481  1  0  0  0  0
 30360  1  0  0  0  0
 30414  1  0  0  0  0
 30457  1  0  0  0  0
 31361  1  0  0  0  0
 31397  1  0  0  0  0
 31482  1  0  0  0  0
 32362  1  0  0  0  0
 32398  1  0  0  0  0
 32458  1  0  0  0  0
 33351  1  0  0  0  0
 33415  1  0  0  0  0
 33451  1  0  0  0  0
 33483  1  0  0  0  0
 34352  1  0  0  0  0
 34393  1  0  0  0  0
 34452  1  0  0  0  0
 34484  1  0  0  0  0
 35353  1  0  0  0  0
 35416  1  0  0  0  0
 35453  1  0  0  0  0
 35485  1  0  0  0  0
 36354  1  0  0  0  0
 36394  1  0  0  0  0
 36454  1  0  0  0  0
 36486  1  0  0  0  0
 37105  1  0  0  0  0
 38106  1  0  0  0  0
 39107  1  0  0  0  0
 40108  1  0  0  0  0
 41109  1  0  0  0  0
 42110  1  0  0  0  0
 43111  1  0  0  0  0
 44112  1  0  0  0  0
 45125  1  0  0  0  0
 46126  1  0  0  0  0
 47127  1  0  0  0  0
 48128  1  0  0  0  0
 49129  1  0  0  0  0
 50130  1  0  0  0  0
 51131  1  0  0  0  0
 52132  1  0  0  0  0
 53133  1  0  0  0  0
 54134  1  0  0  0  0
 55135  1  0  0  0  0
 56136  1  0  0  0  0
 57137  1  0  0  0  0
 58138  1  0  0  0  0
 59139  1  0  0  0  0
 60140  1  0  0  0  0
 61185  1  0  0  0  0
 62186  1  0  0  0  0
 63187  1  0  0  0  0
 64188  1  0  0  0  0
 65189  1  0  0  0  0
 66190  1  0  0  0  0
 67191  1  0  0  0  0
 68192  1  0  0  0  0
 69205  1  0  0  0  0
 70206  1  0  0  0  0
 71207  1  0  0  0  0
 72208  1  0  0  0  0
 73209  1  0  0  0  0
 74210  1  0  0  0  0
 75211  1  0  0  0  0
 76212  1  0  0  0  0
 77213  1  0  0  0  0
 78214  1  0  0  0  0
 79215  1  0  0  0  0
 80216  1  0  0  0  0
 81217  1  0  0  0  0
 82218  1  0  0  0  0
 83219  1  0  0  0  0
 84220  1  0  0  0  0
 85 97  1  0  0  0  0
 85143  1  0  0  0  0
 86135  1  0  0  0  0
 86144  1  0  0  0  0
 87 98  1  0  0  0  0
 87145  1  0  0  0  0
 88136  1  0  0  0  0
 88146  1  0  0  0  0
 89 99  1  0  0  0  0
 89133  1  0  0  0  0
 89141  1  0  0  0  0
 90100  1  0  0  0  0
 90134  1  0  0  0  0
 90142  1  0  0  0  0
 91101  1  0  0  0  0
 91149  1  0  0  0  0
 92139  1  0  0  0  0
 92150  1  0  0  0  0
 93102  1  0  0  0  0
 93151  1  0  0  0  0
 94140  1  0  0  0  0
 94152  1  0  0  0  0
 95103  1  0  0  0  0
 95137  1  0  0  0  0
 95147  1  0  0  0  0
 96104  1  0  0  0  0
 96138  1  0  0  0  0
 96148  1  0  0  0  0
 97105  1  0  0  0  0
 97335  1  0  0  0  0
 98106  1  0  0  0  0
 98336  1  0  0  0  0
 99107  1  0  0  0  0
 99337  1  0  0  0  0
100108  1  0  0  0  0
100338  1  0  0  0  0
101109  1  0  0  0  0
101339  1  0  0  0  0
102110  1  0  0  0  0
102340  1  0  0  0  0
103111  1  0  0  0  0
103341  1  0  0  0  0
104112  1  0  0  0  0
104342  1  0  0  0  0
105113  1  0  0  0  0
106115  1  0  0  0  0
107117  1  0  0  0  0
108118  1  0  0  0  0
109119  1  0  0  0  0
110121  1  0  0  0  0
111123  1  0  0  0  0
112124  1  0  0  0  0
113153  1  0  0  0  0
114127  1  0  0  0  0
114154  1  0  0  0  0
115155  1  0  0  0  0
116128  1  0  0  0  0
116156  1  0  0  0  0
117125  1  0  0  0  0
117157  1  0  0  0  0
118126  1  0  0  0  0
118158  1  0  0  0  0
119159  1  0  0  0  0
120131  1  0  0  0  0
120160  1  0  0  0  0
121161  1  0  0  0  0
122132  1  0  0  0  0
122162  1  0  0  0  0
123129  1  0  0  0  0
123163  1  0  0  0  0
124130  1  0  0  0  0
124164  1  0  0  0  0
125133  1  0  0  0  0
126134  1  0  0  0  0
127135  1  0  0  0  0
128136  1  0  0  0  0
129137  1  0  0  0  0
130138  1  0  0  0  0
131139  1  0  0  0  0
132140  1  0  0  0  0
141387  1  0  0  0  0
141399  1  0  0  0  0
142388  1  0  0  0  0
142400  1  0  0  0  0
143389  1  0  0  0  0
143401  1  0  0  0  0
144390  1  0  0  0  0
144402  1  0  0  0  0
145391  1  0  0  0  0
145403  1  0  0  0  0
146392  1  0  0  0  0
146404  1  0  0  0  0
147393  1  0  0  0  0
147405  1  0  0  0  0
148394  1  0  0  0  0
148406  1  0  0  0  0
149395  1  0  0  0  0
149407  1  0  0  0  0
150396  1  0  0  0  0
150408  1  0  0  0  0
151397  1  0  0  0  0
151409  1  0  0  0  0
152398  1  0  0  0  0
152410  1  0  0  0  0
153411  1  0  0  0  0
153423  1  0  0  0  0
154412  1  0  0  0  0
154424  1  0  0  0  0
155413  1  0  0  0  0
155425  1  0  0  0  0
156414  1  0  0  0  0
156426  1  0  0  0  0
157415  1  0  0  0  0
157427  1  0  0  0  0
158416  1  0  0  0  0
158428  1  0  0  0  0
159417  1  0  0  0  0
159429  1  0  0  0  0
160418  1  0  0  0  0
160430  1  0  0  0  0
161419  1  0  0  0  0
161431  1  0  0  0  0
162420  1  0  0  0  0
162432  1  0  0  0  0
163421  1  0  0  0  0
163433  1  0  0  0  0
164422  1  0  0  0  0
164434  1  0  0  0  0
165213  1  0  0  0  0
165225  1  0  0  0  0
166181  1  0  0  0  0
166226  1  0  0  0  0
167214  1  0  0  0  0
167227  1  0  0  0  0
168182  1  0  0  0  0
168228  1  0  0  0  0
169215  1  0  0  0  0
169229  1  0  0  0  0
170183  1  0  0  0  0
170230  1  0  0  0  0
171216  1  0  0  0  0
171231  1  0  0  0  0
172184  1  0  0  0  0
172232  1  0  0  0  0
173177  1  0  0  0  0
173217  1  0  0  0  0
173221  1  0  0  0  0
174178  1  0  0  0  0
174218  1  0  0  0  0
174222  1  0  0  0  0
175179  1  0  0  0  0
175219  1  0  0  0  0
175223  1  0  0  0  0
176180  1  0  0  0  0
176220  1  0  0  0  0
176224  1  0  0  0  0
177185  1  0  0  0  0
177343  1  0  0  0  0
178186  1  0  0  0  0
178344  1  0  0  0  0
179187  1  0  0  0  0
179345  1  0  0  0  0
180188  1  0  0  0  0
180346  1  0  0  0  0
181189  1  0  0  0  0
181347  1  0  0  0  0
182190  1  0  0  0  0
182348  1  0  0  0  0
183191  1  0  0  0  0
183349  1  0  0  0  0
184192  1  0  0  0  0
184350  1  0  0  0  0
185193  1  0  0  0  0
186194  1  0  0  0  0
187195  1  0  0  0  0
188196  1  0  0  0  0
189198  1  0  0  0  0
190200  1  0  0  0  0
191202  1  0  0  0  0
192204  1  0  0  0  0
193209  1  0  0  0  0
193233  1  0  0  0  0
194210  1  0  0  0  0
194234  1  0  0  0  0
195211  1  0  0  0  0
195235  1  0  0  0  0
196212  1  0  0  0  0
196236  1  0  0  0  0
197205  1  0  0  0  0
197237  1  0  0  0  0
198238  1  0  0  0  0
199206  1  0  0  0  0
199239  1  0  0  0  0
200240  1  0  0  0  0
201207  1  0  0  0  0
201241  1  0  0  0  0
202242  1  0  0  0  0
203208  1  0  0  0  0
203243  1  0  0  0  0
204244  1  0  0  0  0
205213  1  0  0  0  0
206214  1  0  0  0  0
207215  1  0  0  0  0
208216  1  0  0  0  0
209217  1  0  0  0  0
210218  1  0  0  0  0
211219  1  0  0  0  0
212220  1  0  0  0  0
221459  1  0  0  0  0
221471  1  0  0  0  0
222460  1  0  0  0  0
222472  1  0  0  0  0
223461  1  0  0  0  0
223473  1  0  0  0  0
224462  1  0  0  0  0
224474  1  0  0  0  0
225451  1  0  0  0  0
225463  1  0  0  0  0
226452  1  0  0  0  0
226464  1  0  0  0  0
227453  1  0  0  0  0
227465  1  0  0  0  0
228454  1  0  0  0  0
228466  1  0  0  0  0
229455  1  0  0  0  0
229467  1  0  0  0  0
230456  1  0  0  0  0
230468  1  0  0  0  0
231457  1  0  0  0  0
231469  1  0  0  0  0
232458  1  0  0  0  0
232470  1  0  0  0  0
233475  1  0  0  0  0
233487  1  0  0  0  0
234476  1  0  0  0  0
234488  1  0  0  0  0
235477  1  0  0  0  0
235489  1  0  0  0  0
236478  1  0  0  0  0
236490  1  0  0  0  0
237479  1  0  0  0  0
237491  1  0  0  0  0
238480  1  0  0  0  0
238492  1  0  0  0  0
239481  1  0  0  0  0
239493  1  0  0  0  0
240482  1  0  0  0  0
240494  1  0  0  0  0
241483  1  0  0  0  0
241495  1  0  0  0  0
242484  1  0  0  0  0
242496  1  0  0  0  0
243485  1  0  0  0  0
243497  1  0  0  0  0
244486  1  0  0  0  0
244498  1  0  0  0  0
245263  1  0  0  0  0
245365  1  0  0  0  0
246264  1  0  0  0  0
246366  1  0  0  0  0
247266  1  0  0  0  0
247367  1  0  0  0  0
248268  1  0  0  0  0
248368  1  0  0  0  0
249269  1  0  0  0  0
249363  1  0  0  0  0
250271  1  0  0  0  0
250364  1  0  0  0  0
251272  1  0  0  0  0
251355  1  0  0  0  0
252273  1  0  0  0  0
252356  1  0  0  0  0
253274  1  0  0  0  0
253357  1  0  0  0  0
254275  1  0  0  0  0
254358  1  0  0  0  0
255277  1  0  0  0  0
255359  1  0  0  0  0
256279  1  0  0  0  0
256360  1  0  0  0  0
257281  1  0  0  0  0
257361  1  0  0  0  0
258283  1  0  0  0  0
258362  1  0  0  0  0
259284  1  0  0  0  0
259351  1  0  0  0  0
260285  1  0  0  0  0
260352  1  0  0  0  0
261287  1  0  0  0  0
261353  1  0  0  0  0
262289  1  0  0  0  0
262354  1  0  0  0  0
263294  1  0  0  0  0
264295  1  0  0  0  0
265290  1  0  0  0  0
266291  1  0  0  0  0
267292  1  0  0  0  0
268293  1  0  0  0  0
269298  1  0  0  0  0
270296  1  0  0  0  0
271297  1  0  0  0  0
272307  1  0  0  0  0
273308  1  0  0  0  0
274309  1  0  0  0  0
275310  1  0  0  0  0
276299  1  0  0  0  0
277300  1  0  0  0  0
278301  1  0  0  0  0
279302  1  0  0  0  0
280303  1  0  0  0  0
281304  1  0  0  0  0
282305  1  0  0  0  0
283306  1  0  0  0  0
284315  1  0  0  0  0
285316  1  0  0  0  0
286311  1  0  0  0  0
287312  1  0  0  0  0
288313  1  0  0  0  0
289314  1  0  0  0  0
290317  1  0  0  0  0
292318  1  0  0  0  0
294319  1  0  0  0  0
295320  1  0  0  0  0
296321  1  0  0  0  0
298322  1  0  0  0  0
299323  1  0  0  0  0
301324  1  0  0  0  0
303325  1  0  0  0  0
305326  1  0  0  0  0
307327  1  0  0  0  0
308328  1  0  0  0  0
309329  1  0  0  0  0
310330  1  0  0  0  0
311331  1  0  0  0  0
313332  1  0  0  0  0
315333  1  0  0  0  0
316334  1  0  0  0  0
317383  1  0  0  0  0
318384  1  0  0  0  0
319385  1  0  0  0  0
320386  1  0  0  0  0
321381  1  0  0  0  0
322382  1  0  0  0  0
323373  1  0  0  0  0
324374  1  0  0  0  0
325375  1  0  0  0  0
326376  1  0  0  0  0
327377  1  0  0  0  0
328378  1  0  0  0  0
329379  1  0  0  0  0
330380  1  0  0  0  0
331369  1  0  0  0  0
332370  1  0  0  0  0
333371  1  0  0  0  0
334372  1  0  0  0  0
335435  1  0  0  0  0
335443  1  0  0  0  0
336436  1  0  0  0  0
336444  1  0  0  0  0
337437  1  0  0  0  0
337445  1  0  0  0  0
338438  1  0  0  0  0
338446  1  0  0  0  0
339439  1  0  0  0  0
339447  1  0  0  0  0
340440  1  0  0  0  0
340448  1  0  0  0  0
341441  1  0  0  0  0
341449  1  0  0  0  0
342442  1  0  0  0  0
342450  1  0  0  0  0
343499  1  0  0  0  0
343507  1  0  0  0  0
344500  1  0  0  0  0
344508  1  0  0  0  0
345501  1  0  0  0  0
345509  1  0  0  0  0
346502  1  0  0  0  0
346510  1  0  0  0  0
347503  1  0  0  0  0
347511  1  0  0  0  0
348504  1  0  0  0  0
348512  1  0  0  0  0
349505  1  0  0  0  0
349513  1  0  0  0  0
350506  1  0  0  0  0
350514  1  0  0  0  0
M  END
$$$$
