no2_bdc_cu2_paddlewheel_pillared_sql_bipy
AtomForge visual export

248270  0  0  0  0            999 V2000
   10.9728    0.0017    5.4838 Cu  0  0  0  0  0  0  0  0  0  0  0  0
   10.9728   21.9876    5.4838 Cu  0  0  0  0  0  0  0  0  0  0  0  0
   10.9728   10.9946    5.4838 Cu  0  0  0  0  0  0  0  0  0  0  0  0
   -0.0202    0.0017    5.4838 Cu  0  0  0  0  0  0  0  0  0  0  0  0
   -0.0202   21.9876    5.4838 Cu  0  0  0  0  0  0  0  0  0  0  0  0
   21.9658    0.0017    5.4838 Cu  0  0  0  0  0  0  0  0  0  0  0  0
   21.9658   21.9876    5.4838 Cu  0  0  0  0  0  0  0  0  0  0  0  0
   -0.0202   10.9946    5.4838 Cu  0  0  0  0  0  0  0  0  0  0  0  0
   21.9658   10.9946    5.4838 Cu  0  0  0  0  0  0  0  0  0  0  0  0
   10.9728    0.0017    8.3162 Cu  0  0  0  0  0  0  0  0  0  0  0  0
   10.9728   21.9876    8.3162 Cu  0  0  0  0  0  0  0  0  0  0  0  0
   10.9728   10.9946    8.3162 Cu  0  0  0  0  0  0  0  0  0  0  0  0
   -0.0201    0.0017    8.3162 Cu  0  0  0  0  0  0  0  0  0  0  0  0
   -0.0201   21.9876    8.3162 Cu  0  0  0  0  0  0  0  0  0  0  0  0
   21.9658    0.0017    8.3162 Cu  0  0  0  0  0  0  0  0  0  0  0  0
   21.9658   21.9876    8.3162 Cu  0  0  0  0  0  0  0  0  0  0  0  0
   -0.0201   10.9946    8.3162 Cu  0  0  0  0  0  0  0  0  0  0  0  0
   21.9658   10.9946    8.3162 Cu  0  0  0  0  0  0  0  0  0  0  0  0
    4.2808    2.1630    6.9000 H   0  0  0  0  0  0  0  0  0  0  0  0
    4.2808   13.1559    6.9000 H   0  0  0  0  0  0  0  0  0  0  0  0
   15.2738    2.1630    6.9000 H   0  0  0  0  0  0  0  0  0  0  0  0
   15.2738   13.1559    6.9000 H   0  0  0  0  0  0  0  0  0  0  0  0
    4.2716    8.8781    6.9000 H   0  0  0  0  0  0  0  0  0  0  0  0
    4.2716   19.8710    6.9000 H   0  0  0  0  0  0  0  0  0  0  0  0
   15.2645    8.8781    6.9000 H   0  0  0  0  0  0  0  0  0  0  0  0
   15.2645   19.8710    6.9000 H   0  0  0  0  0  0  0  0  0  0  0  0
    6.7210    8.8818    6.9000 H   0  0  0  0  0  0  0  0  0  0  0  0
    6.7210   19.8748    6.9000 H   0  0  0  0  0  0  0  0  0  0  0  0
   17.7140    8.8818    6.9000 H   0  0  0  0  0  0  0  0  0  0  0  0
   17.7140   19.8748    6.9000 H   0  0  0  0  0  0  0  0  0  0  0  0
    8.8499    4.2849    6.9000 H   0  0  0  0  0  0  0  0  0  0  0  0
    8.8499   15.2778    6.9000 H   0  0  0  0  0  0  0  0  0  0  0  0
   19.8429    4.2849    6.9000 H   0  0  0  0  0  0  0  0  0  0  0  0
   19.8429   15.2778    6.9000 H   0  0  0  0  0  0  0  0  0  0  0  0
    2.1269    4.2831    6.9000 H   0  0  0  0  0  0  0  0  0  0  0  0
    2.1269   15.2761    6.9000 H   0  0  0  0  0  0  0  0  0  0  0  0
   13.1199    4.2831    6.9000 H   0  0  0  0  0  0  0  0  0  0  0  0
   13.1199   15.2761    6.9000 H   0  0  0  0  0  0  0  0  0  0  0  0
    2.1283    6.7322    6.9000 H   0  0  0  0  0  0  0  0  0  0  0  0
    2.1283   17.7251    6.9000 H   0  0  0  0  0  0  0  0  0  0  0  0
   13.1213    6.7322    6.9000 H   0  0  0  0  0  0  0  0  0  0  0  0
   13.1213   17.7251    6.9000 H   0  0  0  0  0  0  0  0  0  0  0  0
    6.9143    0.0015    6.9000 C   0  0  0  0  0  0  0  0  0  0  0  0
    6.9143   21.9875    6.9000 C   0  0  0  0  0  0  0  0  0  0  0  0
    6.9143   10.9945    6.9000 C   0  0  0  0  0  0  0  0  0  0  0  0
   17.9073    0.0015    6.9000 C   0  0  0  0  0  0  0  0  0  0  0  0
   17.9073   21.9875    6.9000 C   0  0  0  0  0  0  0  0  0  0  0  0
   17.9073   10.9945    6.9000 C   0  0  0  0  0  0  0  0  0  0  0  0
    6.1838    1.1889    6.9000 C   0  0  0  0  0  0  0  0  0  0  0  0
    6.1838   12.1819    6.9000 C   0  0  0  0  0  0  0  0  0  0  0  0
   17.1768    1.1889    6.9000 C   0  0  0  0  0  0  0  0  0  0  0  0
   17.1768   12.1819    6.9000 C   0  0  0  0  0  0  0  0  0  0  0  0
    4.7849    1.2077    6.9000 C   0  0  0  0  0  0  0  0  0  0  0  0
    4.7849   12.2007    6.9000 C   0  0  0  0  0  0  0  0  0  0  0  0
   15.7779    1.2077    6.9000 C   0  0  0  0  0  0  0  0  0  0  0  0
   15.7779   12.2007    6.9000 C   0  0  0  0  0  0  0  0  0  0  0  0
    4.0774    0.0200    6.9000 C   0  0  0  0  0  0  0  0  0  0  0  0
    4.0774   22.0060    6.9000 C   0  0  0  0  0  0  0  0  0  0  0  0
    4.0774   11.0130    6.9000 C   0  0  0  0  0  0  0  0  0  0  0  0
   15.0703    0.0200    6.9000 C   0  0  0  0  0  0  0  0  0  0  0  0
   15.0703   22.0060    6.9000 C   0  0  0  0  0  0  0  0  0  0  0  0
   15.0703   11.0130    6.9000 C   0  0  0  0  0  0  0  0  0  0  0  0
    4.7960    9.8209    6.9000 C   0  0  0  0  0  0  0  0  0  0  0  0
    4.7960   20.8139    6.9000 C   0  0  0  0  0  0  0  0  0  0  0  0
   15.7890    9.8209    6.9000 C   0  0  0  0  0  0  0  0  0  0  0  0
   15.7890   20.8139    6.9000 C   0  0  0  0  0  0  0  0  0  0  0  0
    6.1861    9.8154    6.9000 C   0  0  0  0  0  0  0  0  0  0  0  0
    6.1861   20.8084    6.9000 C   0  0  0  0  0  0  0  0  0  0  0  0
   17.1791    9.8154    6.9000 C   0  0  0  0  0  0  0  0  0  0  0  0
   17.1791   20.8084    6.9000 C   0  0  0  0  0  0  0  0  0  0  0  0
    8.4544   10.9929    6.9000 C   0  0  0  0  0  0  0  0  0  0  0  0
    8.4544   -0.0001    6.9000 C   0  0  0  0  0  0  0  0  0  0  0  0
    8.4544   21.9858    6.9000 C   0  0  0  0  0  0  0  0  0  0  0  0
   19.4474   10.9929    6.9000 C   0  0  0  0  0  0  0  0  0  0  0  0
   19.4474   -0.0001    6.9000 C   0  0  0  0  0  0  0  0  0  0  0  0
   19.4474   21.9858    6.9000 C   0  0  0  0  0  0  0  0  0  0  0  0
    2.5420    0.0137    6.9000 C   0  0  0  0  0  0  0  0  0  0  0  0
    2.5420   21.9996    6.9000 C   0  0  0  0  0  0  0  0  0  0  0  0
    2.5420   11.0066    6.9000 C   0  0  0  0  0  0  0  0  0  0  0  0
   13.5350    0.0137    6.9000 C   0  0  0  0  0  0  0  0  0  0  0  0
   13.5350   21.9996    6.9000 C   0  0  0  0  0  0  0  0  0  0  0  0
   13.5350   11.0066    6.9000 C   0  0  0  0  0  0  0  0  0  0  0  0
    0.0064    6.9266    6.9000 C   0  0  0  0  0  0  0  0  0  0  0  0
   21.9924    6.9266    6.9000 C   0  0  0  0  0  0  0  0  0  0  0  0
    0.0064   17.9196    6.9000 C   0  0  0  0  0  0  0  0  0  0  0  0
   21.9924   17.9196    6.9000 C   0  0  0  0  0  0  0  0  0  0  0  0
   10.9994    6.9266    6.9000 C   0  0  0  0  0  0  0  0  0  0  0  0
   10.9994   17.9196    6.9000 C   0  0  0  0  0  0  0  0  0  0  0  0
    9.8122    6.1939    6.9000 C   0  0  0  0  0  0  0  0  0  0  0  0
    9.8122   17.1869    6.9000 C   0  0  0  0  0  0  0  0  0  0  0  0
   20.8052    6.1939    6.9000 C   0  0  0  0  0  0  0  0  0  0  0  0
   20.8052   17.1869    6.9000 C   0  0  0  0  0  0  0  0  0  0  0  0
    9.7975    4.8002    6.9000 C   0  0  0  0  0  0  0  0  0  0  0  0
    9.7975   15.7931    6.9000 C   0  0  0  0  0  0  0  0  0  0  0  0
   20.7905    4.8002    6.9000 C   0  0  0  0  0  0  0  0  0  0  0  0
   20.7905   15.7931    6.9000 C   0  0  0  0  0  0  0  0  0  0  0  0
   10.9851    4.0903    6.9000 C   0  0  0  0  0  0  0  0  0  0  0  0
   10.9851   15.0833    6.9000 C   0  0  0  0  0  0  0  0  0  0  0  0
   -0.0078    4.0903    6.9000 C   0  0  0  0  0  0  0  0  0  0  0  0
   21.9781    4.0903    6.9000 C   0  0  0  0  0  0  0  0  0  0  0  0
   -0.0078   15.0833    6.9000 C   0  0  0  0  0  0  0  0  0  0  0  0
   21.9781   15.0833    6.9000 C   0  0  0  0  0  0  0  0  0  0  0  0
    1.1839    4.8086    6.9000 C   0  0  0  0  0  0  0  0  0  0  0  0
    1.1839   15.8016    6.9000 C   0  0  0  0  0  0  0  0  0  0  0  0
   12.1769    4.8086    6.9000 C   0  0  0  0  0  0  0  0  0  0  0  0
   12.1769   15.8016    6.9000 C   0  0  0  0  0  0  0  0  0  0  0  0
    1.1883    6.2034    6.9000 C   0  0  0  0  0  0  0  0  0  0  0  0
    1.1883   17.1964    6.9000 C   0  0  0  0  0  0  0  0  0  0  0  0
   12.1813    6.2034    6.9000 C   0  0  0  0  0  0  0  0  0  0  0  0
   12.1813   17.1964    6.9000 C   0  0  0  0  0  0  0  0  0  0  0  0
   10.9816    8.4637    6.9000 C   0  0  0  0  0  0  0  0  0  0  0  0
   10.9816   19.4566    6.9000 C   0  0  0  0  0  0  0  0  0  0  0  0
   -0.0114    8.4637    6.9000 C   0  0  0  0  0  0  0  0  0  0  0  0
   21.9746    8.4637    6.9000 C   0  0  0  0  0  0  0  0  0  0  0  0
   -0.0114   19.4566    6.9000 C   0  0  0  0  0  0  0  0  0  0  0  0
   21.9746   19.4566    6.9000 C   0  0  0  0  0  0  0  0  0  0  0  0
   10.9740    2.5512    6.9000 C   0  0  0  0  0  0  0  0  0  0  0  0
   10.9740   13.5441    6.9000 C   0  0  0  0  0  0  0  0  0  0  0  0
   -0.0190    2.5512    6.9000 C   0  0  0  0  0  0  0  0  0  0  0  0
   21.9670    2.5512    6.9000 C   0  0  0  0  0  0  0  0  0  0  0  0
   -0.0190   13.5441    6.9000 C   0  0  0  0  0  0  0  0  0  0  0  0
   21.9670   13.5441    6.9000 C   0  0  0  0  0  0  0  0  0  0  0  0
   10.9921    0.0000   11.8253 C   0  0  0  0  0  0  0  0  0  0  0  0
   10.9921   21.9860   11.8253 C   0  0  0  0  0  0  0  0  0  0  0  0
   10.9921   10.9930   11.8253 C   0  0  0  0  0  0  0  0  0  0  0  0
   -0.0008    0.0000   11.8253 C   0  0  0  0  0  0  0  0  0  0  0  0
   -0.0008   21.9860   11.8253 C   0  0  0  0  0  0  0  0  0  0  0  0
   21.9851    0.0000   11.8253 C   0  0  0  0  0  0  0  0  0  0  0  0
   21.9851   21.9860   11.8253 C   0  0  0  0  0  0  0  0  0  0  0  0
   -0.0008   10.9930   11.8253 C   0  0  0  0  0  0  0  0  0  0  0  0
   21.9851   10.9930   11.8253 C   0  0  0  0  0  0  0  0  0  0  0  0
   10.9915    0.0001   13.1907 C   0  0  0  0  0  0  0  0  0  0  0  0
   10.9915   21.9861   13.1907 C   0  0  0  0  0  0  0  0  0  0  0  0
   10.9915   10.9931   13.1907 C   0  0  0  0  0  0  0  0  0  0  0  0
   -0.0015    0.0001   13.1907 C   0  0  0  0  0  0  0  0  0  0  0  0
   -0.0015   21.9861   13.1907 C   0  0  0  0  0  0  0  0  0  0  0  0
   21.9845    0.0001   13.1907 C   0  0  0  0  0  0  0  0  0  0  0  0
   21.9845   21.9861   13.1907 C   0  0  0  0  0  0  0  0  0  0  0  0
   -0.0015   10.9931   13.1907 C   0  0  0  0  0  0  0  0  0  0  0  0
   21.9845   10.9931   13.1907 C   0  0  0  0  0  0  0  0  0  0  0  0
   10.9915    0.0001    0.6093 C   0  0  0  0  0  0  0  0  0  0  0  0
   10.9915   21.9861    0.6093 C   0  0  0  0  0  0  0  0  0  0  0  0
   10.9915   10.9931    0.6093 C   0  0  0  0  0  0  0  0  0  0  0  0
   -0.0015    0.0001    0.6093 C   0  0  0  0  0  0  0  0  0  0  0  0
   -0.0015   21.9861    0.6093 C   0  0  0  0  0  0  0  0  0  0  0  0
   21.9845    0.0001    0.6093 C   0  0  0  0  0  0  0  0  0  0  0  0
   21.9845   21.9861    0.6093 C   0  0  0  0  0  0  0  0  0  0  0  0
   -0.0015   10.9931    0.6093 C   0  0  0  0  0  0  0  0  0  0  0  0
   21.9845   10.9931    0.6093 C   0  0  0  0  0  0  0  0  0  0  0  0
   10.9921    0.0000    1.9742 C   0  0  0  0  0  0  0  0  0  0  0  0
   10.9921   21.9860    1.9742 C   0  0  0  0  0  0  0  0  0  0  0  0
   10.9921   10.9930    1.9742 C   0  0  0  0  0  0  0  0  0  0  0  0
   -0.0008    0.0000    1.9742 C   0  0  0  0  0  0  0  0  0  0  0  0
   -0.0008   21.9860    1.9742 C   0  0  0  0  0  0  0  0  0  0  0  0
   21.9851    0.0000    1.9742 C   0  0  0  0  0  0  0  0  0  0  0  0
   21.9851   21.9860    1.9742 C   0  0  0  0  0  0  0  0  0  0  0  0
   -0.0008   10.9930    1.9742 C   0  0  0  0  0  0  0  0  0  0  0  0
   21.9851   10.9930    1.9742 C   0  0  0  0  0  0  0  0  0  0  0  0
    6.8878    2.4346    6.9000 N   0  0  0  0  0  0  0  0  0  0  0  0
    6.8878   13.4276    6.9000 N   0  0  0  0  0  0  0  0  0  0  0  0
   17.8807    2.4346    6.9000 N   0  0  0  0  0  0  0  0  0  0  0  0
   17.8807   13.4276    6.9000 N   0  0  0  0  0  0  0  0  0  0  0  0
    8.5695    6.9034    6.9000 N   0  0  0  0  0  0  0  0  0  0  0  0
    8.5695   17.8964    6.9000 N   0  0  0  0  0  0  0  0  0  0  0  0
   19.5625    6.9034    6.9000 N   0  0  0  0  0  0  0  0  0  0  0  0
   19.5625   17.8964    6.9000 N   0  0  0  0  0  0  0  0  0  0  0  0
    0.0015   10.9927   10.6758 N   0  0  0  0  0  0  0  0  0  0  0  0
   21.9875   10.9927   10.6758 N   0  0  0  0  0  0  0  0  0  0  0  0
    0.0015   -0.0003   10.6758 N   0  0  0  0  0  0  0  0  0  0  0  0
    0.0015   21.9857   10.6758 N   0  0  0  0  0  0  0  0  0  0  0  0
   21.9875   -0.0003   10.6758 N   0  0  0  0  0  0  0  0  0  0  0  0
   21.9875   21.9857   10.6758 N   0  0  0  0  0  0  0  0  0  0  0  0
   10.9945   10.9927   10.6758 N   0  0  0  0  0  0  0  0  0  0  0  0
   10.9945   -0.0003   10.6758 N   0  0  0  0  0  0  0  0  0  0  0  0
   10.9945   21.9857   10.6758 N   0  0  0  0  0  0  0  0  0  0  0  0
    0.0015   10.9927    3.1246 N   0  0  0  0  0  0  0  0  0  0  0  0
   21.9875   10.9927    3.1246 N   0  0  0  0  0  0  0  0  0  0  0  0
    0.0015   -0.0003    3.1246 N   0  0  0  0  0  0  0  0  0  0  0  0
    0.0015   21.9857    3.1246 N   0  0  0  0  0  0  0  0  0  0  0  0
   21.9875   -0.0003    3.1246 N   0  0  0  0  0  0  0  0  0  0  0  0
   21.9875   21.9857    3.1246 N   0  0  0  0  0  0  0  0  0  0  0  0
   10.9945   10.9927    3.1246 N   0  0  0  0  0  0  0  0  0  0  0  0
   10.9945   -0.0003    3.1246 N   0  0  0  0  0  0  0  0  0  0  0  0
   10.9945   21.9857    3.1246 N   0  0  0  0  0  0  0  0  0  0  0  0
    8.9788   10.9718    8.0272 O   0  0  0  0  0  0  0  0  0  0  0  0
    8.9788   -0.0211    8.0272 O   0  0  0  0  0  0  0  0  0  0  0  0
    8.9788   21.9648    8.0272 O   0  0  0  0  0  0  0  0  0  0  0  0
   19.9718   10.9718    8.0272 O   0  0  0  0  0  0  0  0  0  0  0  0
   19.9718   -0.0211    8.0272 O   0  0  0  0  0  0  0  0  0  0  0  0
   19.9718   21.9648    8.0272 O   0  0  0  0  0  0  0  0  0  0  0  0
    8.9788   10.9718    5.7728 O   0  0  0  0  0  0  0  0  0  0  0  0
    8.9788   -0.0211    5.7728 O   0  0  0  0  0  0  0  0  0  0  0  0
    8.9788   21.9648    5.7728 O   0  0  0  0  0  0  0  0  0  0  0  0
   19.9718   10.9718    5.7728 O   0  0  0  0  0  0  0  0  0  0  0  0
   19.9718   -0.0211    5.7728 O   0  0  0  0  0  0  0  0  0  0  0  0
   19.9718   21.9648    5.7728 O   0  0  0  0  0  0  0  0  0  0  0  0
    2.0093    0.0112    8.0241 O   0  0  0  0  0  0  0  0  0  0  0  0
    2.0093   21.9971    8.0241 O   0  0  0  0  0  0  0  0  0  0  0  0
    2.0093   11.0041    8.0241 O   0  0  0  0  0  0  0  0  0  0  0  0
   13.0022    0.0112    8.0241 O   0  0  0  0  0  0  0  0  0  0  0  0
   13.0022   21.9971    8.0241 O   0  0  0  0  0  0  0  0  0  0  0  0
   13.0022   11.0041    8.0241 O   0  0  0  0  0  0  0  0  0  0  0  0
    2.0093    0.0112    5.7759 O   0  0  0  0  0  0  0  0  0  0  0  0
    2.0093   21.9971    5.7759 O   0  0  0  0  0  0  0  0  0  0  0  0
    2.0093   11.0041    5.7759 O   0  0  0  0  0  0  0  0  0  0  0  0
   13.0022    0.0112    5.7759 O   0  0  0  0  0  0  0  0  0  0  0  0
   13.0022   21.9971    5.7759 O   0  0  0  0  0  0  0  0  0  0  0  0
   13.0022   11.0041    5.7759 O   0  0  0  0  0  0  0  0  0  0  0  0
    6.2515    3.4623    6.9000 O   0  0  0  0  0  0  0  0  0  0  0  0
    6.2515   14.4553    6.9000 O   0  0  0  0  0  0  0  0  0  0  0  0
   17.2445    3.4623    6.9000 O   0  0  0  0  0  0  0  0  0  0  0  0
   17.2445   14.4553    6.9000 O   0  0  0  0  0  0  0  0  0  0  0  0
    8.1042    2.3846    6.9000 O   0  0  0  0  0  0  0  0  0  0  0  0
    8.1042   13.3775    6.9000 O   0  0  0  0  0  0  0  0  0  0  0  0
   19.0972    2.3846    6.9000 O   0  0  0  0  0  0  0  0  0  0  0  0
   19.0972   13.3775    6.9000 O   0  0  0  0  0  0  0  0  0  0  0  0
    0.0249    8.9895    8.0277 O   0  0  0  0  0  0  0  0  0  0  0  0
   22.0108    8.9895    8.0277 O   0  0  0  0  0  0  0  0  0  0  0  0
    0.0249   19.9824    8.0277 O   0  0  0  0  0  0  0  0  0  0  0  0
   22.0108   19.9824    8.0277 O   0  0  0  0  0  0  0  0  0  0  0  0
   11.0179    8.9895    8.0277 O   0  0  0  0  0  0  0  0  0  0  0  0
   11.0179   19.9824    8.0277 O   0  0  0  0  0  0  0  0  0  0  0  0
    0.0249    8.9895    5.7723 O   0  0  0  0  0  0  0  0  0  0  0  0
   22.0108    8.9895    5.7723 O   0  0  0  0  0  0  0  0  0  0  0  0
    0.0249   19.9824    5.7723 O   0  0  0  0  0  0  0  0  0  0  0  0
   22.0108   19.9824    5.7723 O   0  0  0  0  0  0  0  0  0  0  0  0
   11.0179    8.9895    5.7723 O   0  0  0  0  0  0  0  0  0  0  0  0
   11.0179   19.9824    5.7723 O   0  0  0  0  0  0  0  0  0  0  0  0
   10.9855    2.0194    8.0237 O   0  0  0  0  0  0  0  0  0  0  0  0
   10.9855   13.0124    8.0237 O   0  0  0  0  0  0  0  0  0  0  0  0
   -0.0075    2.0194    8.0237 O   0  0  0  0  0  0  0  0  0  0  0  0
   21.9785    2.0194    8.0237 O   0  0  0  0  0  0  0  0  0  0  0  0
   -0.0075   13.0124    8.0237 O   0  0  0  0  0  0  0  0  0  0  0  0
   21.9785   13.0124    8.0237 O   0  0  0  0  0  0  0  0  0  0  0  0
   10.9855    2.0195    5.7763 O   0  0  0  0  0  0  0  0  0  0  0  0
   10.9855   13.0124    5.7763 O   0  0  0  0  0  0  0  0  0  0  0  0
   -0.0075    2.0195    5.7763 O   0  0  0  0  0  0  0  0  0  0  0  0
   21.9785    2.0195    5.7763 O   0  0  0  0  0  0  0  0  0  0  0  0
   -0.0075   13.0124    5.7763 O   0  0  0  0  0  0  0  0  0  0  0  0
   21.9785   13.0124    5.7763 O   0  0  0  0  0  0  0  0  0  0  0  0
    7.5311    6.2860    6.9000 O   0  0  0  0  0  0  0  0  0  0  0  0
    7.5311   17.2790    6.9000 O   0  0  0  0  0  0  0  0  0  0  0  0
   18.5240    6.2860    6.9000 O   0  0  0  0  0  0  0  0  0  0  0  0
   18.5240   17.2790    6.9000 O   0  0  0  0  0  0  0  0  0  0  0  0
    8.6304    8.1207    6.9000 O   0  0  0  0  0  0  0  0  0  0  0  0
    8.6304   19.1137    6.9000 O   0  0  0  0  0  0  0  0  0  0  0  0
   19.6233    8.1207    6.9000 O   0  0  0  0  0  0  0  0  0  0  0  0
   19.6233   19.1137    6.9000 O   0  0  0  0  0  0  0  0  0  0  0  0
  1183  1  0  0  0  0
  1192  1  0  0  0  0
  1206  1  0  0  0  0
  1235  1  0  0  0  0
  2184  1  0  0  0  0
  2193  1  0  0  0  0
  2207  1  0  0  0  0
  2228  1  0  0  0  0
  3182  1  0  0  0  0
  3191  1  0  0  0  0
  3208  1  0  0  0  0
  3227  1  0  0  0  0
  3236  1  0  0  0  0
  4178  1  0  0  0  0
  4203  1  0  0  0  0
  4237  1  0  0  0  0
  5179  1  0  0  0  0
  5204  1  0  0  0  0
  5225  1  0  0  0  0
  6180  1  0  0  0  0
  6195  1  0  0  0  0
  6238  1  0  0  0  0
  7181  1  0  0  0  0
  7196  1  0  0  0  0
  7226  1  0  0  0  0
  8176  1  0  0  0  0
  8205  1  0  0  0  0
  8223  1  0  0  0  0
  8239  1  0  0  0  0
  9177  1  0  0  0  0
  9194  1  0  0  0  0
  9224  1  0  0  0  0
  9240  1  0  0  0  0
 10174  1  0  0  0  0
 10186  1  0  0  0  0
 10200  1  0  0  0  0
 10229  1  0  0  0  0
 11175  1  0  0  0  0
 11187  1  0  0  0  0
 11201  1  0  0  0  0
 11222  1  0  0  0  0
 12173  1  0  0  0  0
 12185  1  0  0  0  0
 12202  1  0  0  0  0
 12221  1  0  0  0  0
 12230  1  0  0  0  0
 13169  1  0  0  0  0
 13197  1  0  0  0  0
 13231  1  0  0  0  0
 14170  1  0  0  0  0
 14198  1  0  0  0  0
 14219  1  0  0  0  0
 15171  1  0  0  0  0
 15189  1  0  0  0  0
 15232  1  0  0  0  0
 16172  1  0  0  0  0
 16190  1  0  0  0  0
 16220  1  0  0  0  0
 17167  1  0  0  0  0
 17199  1  0  0  0  0
 17217  1  0  0  0  0
 17233  1  0  0  0  0
 18168  1  0  0  0  0
 18188  1  0  0  0  0
 18218  1  0  0  0  0
 18234  1  0  0  0  0
 19 53  1  0  0  0  0
 20 54  1  0  0  0  0
 21 55  1  0  0  0  0
 22 56  1  0  0  0  0
 23 63  1  0  0  0  0
 24 64  1  0  0  0  0
 25 65  1  0  0  0  0
 26 66  1  0  0  0  0
 27 67  1  0  0  0  0
 28 68  1  0  0  0  0
 29 69  1  0  0  0  0
 30 70  1  0  0  0  0
 31 93  1  0  0  0  0
 32 94  1  0  0  0  0
 33 95  1  0  0  0  0
 34 96  1  0  0  0  0
 35103  1  0  0  0  0
 36104  1  0  0  0  0
 37105  1  0  0  0  0
 38106  1  0  0  0  0
 39107  1  0  0  0  0
 40108  1  0  0  0  0
 41109  1  0  0  0  0
 42110  1  0  0  0  0
 43 49  1  0  0  0  0
 43 72  1  0  0  0  0
 44 68  1  0  0  0  0
 44 73  1  0  0  0  0
 45 50  1  0  0  0  0
 45 67  1  0  0  0  0
 45 71  1  0  0  0  0
 46 51  1  0  0  0  0
 46 75  1  0  0  0  0
 47 70  1  0  0  0  0
 47 76  1  0  0  0  0
 48 52  1  0  0  0  0
 48 69  1  0  0  0  0
 48 74  1  0  0  0  0
 49 53  1  0  0  0  0
 49159  1  0  0  0  0
 50 54  1  0  0  0  0
 50160  1  0  0  0  0
 51 55  1  0  0  0  0
 51161  1  0  0  0  0
 52 56  1  0  0  0  0
 52162  1  0  0  0  0
 53 57  1  0  0  0  0
 54 59  1  0  0  0  0
 55 60  1  0  0  0  0
 56 62  1  0  0  0  0
 57 77  1  0  0  0  0
 58 64  1  0  0  0  0
 58 78  1  0  0  0  0
 59 63  1  0  0  0  0
 59 79  1  0  0  0  0
 60 80  1  0  0  0  0
 61 66  1  0  0  0  0
 61 81  1  0  0  0  0
 62 65  1  0  0  0  0
 62 82  1  0  0  0  0
 63 67  1  0  0  0  0
 64 68  1  0  0  0  0
 65 69  1  0  0  0  0
 66 70  1  0  0  0  0
 71185  1  0  0  0  0
 71191  1  0  0  0  0
 72186  1  0  0  0  0
 72192  1  0  0  0  0
 73187  1  0  0  0  0
 73193  1  0  0  0  0
 74188  1  0  0  0  0
 74194  1  0  0  0  0
 75189  1  0  0  0  0
 75195  1  0  0  0  0
 76190  1  0  0  0  0
 76196  1  0  0  0  0
 77197  1  0  0  0  0
 77203  1  0  0  0  0
 78198  1  0  0  0  0
 78204  1  0  0  0  0
 79199  1  0  0  0  0
 79205  1  0  0  0  0
 80200  1  0  0  0  0
 80206  1  0  0  0  0
 81201  1  0  0  0  0
 81207  1  0  0  0  0
 82202  1  0  0  0  0
 82208  1  0  0  0  0
 83107  1  0  0  0  0
 83113  1  0  0  0  0
 84 91  1  0  0  0  0
 84114  1  0  0  0  0
 85108  1  0  0  0  0
 85115  1  0  0  0  0
 86 92  1  0  0  0  0
 86116  1  0  0  0  0
 87 89  1  0  0  0  0
 87109  1  0  0  0  0
 87111  1  0  0  0  0
 88 90  1  0  0  0  0
 88110  1  0  0  0  0
 88112  1  0  0  0  0
 89 93  1  0  0  0  0
 89163  1  0  0  0  0
 90 94  1  0  0  0  0
 90164  1  0  0  0  0
 91 95  1  0  0  0  0
 91165  1  0  0  0  0
 92 96  1  0  0  0  0
 92166  1  0  0  0  0
 93 97  1  0  0  0  0
 94 98  1  0  0  0  0
 95100  1  0  0  0  0
 96102  1  0  0  0  0
 97105  1  0  0  0  0
 97117  1  0  0  0  0
 98106  1  0  0  0  0
 98118  1  0  0  0  0
 99103  1  0  0  0  0
 99119  1  0  0  0  0
100120  1  0  0  0  0
101104  1  0  0  0  0
101121  1  0  0  0  0
102122  1  0  0  0  0
103107  1  0  0  0  0
104108  1  0  0  0  0
105109  1  0  0  0  0
106110  1  0  0  0  0
111221  1  0  0  0  0
111227  1  0  0  0  0
112222  1  0  0  0  0
112228  1  0  0  0  0
113217  1  0  0  0  0
113223  1  0  0  0  0
114218  1  0  0  0  0
114224  1  0  0  0  0
115219  1  0  0  0  0
115225  1  0  0  0  0
116220  1  0  0  0  0
116226  1  0  0  0  0
117229  1  0  0  0  0
117235  1  0  0  0  0
118230  1  0  0  0  0
118236  1  0  0  0  0
119231  1  0  0  0  0
119237  1  0  0  0  0
120232  1  0  0  0  0
120238  1  0  0  0  0
121233  1  0  0  0  0
121239  1  0  0  0  0
122234  1  0  0  0  0
122240  1  0  0  0  0
123132  1  0  0  0  0
123174  1  0  0  0  0
124133  1  0  0  0  0
124175  1  0  0  0  0
125134  1  0  0  0  0
125173  1  0  0  0  0
126135  1  0  0  0  0
126169  1  0  0  0  0
127136  1  0  0  0  0
127170  1  0  0  0  0
128137  1  0  0  0  0
128171  1  0  0  0  0
129138  1  0  0  0  0
129172  1  0  0  0  0
130139  1  0  0  0  0
130167  1  0  0  0  0
131140  1  0  0  0  0
131168  1  0  0  0  0
141150  1  0  0  0  0
142151  1  0  0  0  0
143152  1  0  0  0  0
144153  1  0  0  0  0
145154  1  0  0  0  0
146155  1  0  0  0  0
147156  1  0  0  0  0
148157  1  0  0  0  0
149158  1  0  0  0  0
150183  1  0  0  0  0
151184  1  0  0  0  0
152182  1  0  0  0  0
153178  1  0  0  0  0
154179  1  0  0  0  0
155180  1  0  0  0  0
156181  1  0  0  0  0
157176  1  0  0  0  0
158177  1  0  0  0  0
159209  1  0  0  0  0
159213  1  0  0  0  0
160210  1  0  0  0  0
160214  1  0  0  0  0
161211  1  0  0  0  0
161215  1  0  0  0  0
162212  1  0  0  0  0
162216  1  0  0  0  0
163241  1  0  0  0  0
163245  1  0  0  0  0
164242  1  0  0  0  0
164246  1  0  0  0  0
165243  1  0  0  0  0
165247  1  0  0  0  0
166244  1  0  0  0  0
166248  1  0  0  0  0
M  END
$$$$
