no2_bdc_cu2_paddlewheel_pillared_sql_bipy
AtomForge visual export

130138  0  0  0  0            999 V2000
   -0.0202    0.0017    5.4838 Cu  0  0  0  0  0  0  0  0  0  0  0  0
   -0.0202   10.9946    5.4838 Cu  0  0  0  0  0  0  0  0  0  0  0  0
   10.9728    0.0017    5.4838 Cu  0  0  0  0  0  0  0  0  0  0  0  0
   10.9728   10.9946    5.4838 Cu  0  0  0  0  0  0  0  0  0  0  0  0
   -0.0201    0.0017    8.3162 Cu  0  0  0  0  0  0  0  0  0  0  0  0
   -0.0201   10.9946    8.3162 Cu  0  0  0  0  0  0  0  0  0  0  0  0
   10.9728    0.0017    8.3162 Cu  0  0  0  0  0  0  0  0  0  0  0  0
   10.9728   10.9946    8.3162 Cu  0  0  0  0  0  0  0  0  0  0  0  0
    4.2808    2.1630    6.9000 H   0  0  0  0  0  0  0  0  0  0  0  0
    4.2808   13.1559    6.9000 H   0  0  0  0  0  0  0  0  0  0  0  0
    4.2716   -2.1149    6.9000 H   0  0  0  0  0  0  0  0  0  0  0  0
    4.2716    8.8781    6.9000 H   0  0  0  0  0  0  0  0  0  0  0  0
    6.7210   -2.1112    6.9000 H   0  0  0  0  0  0  0  0  0  0  0  0
    6.7210    8.8818    6.9000 H   0  0  0  0  0  0  0  0  0  0  0  0
   -2.1431    4.2849    6.9000 H   0  0  0  0  0  0  0  0  0  0  0  0
    8.8499    4.2849    6.9000 H   0  0  0  0  0  0  0  0  0  0  0  0
    2.1269    4.2831    6.9000 H   0  0  0  0  0  0  0  0  0  0  0  0
   13.1199    4.2831    6.9000 H   0  0  0  0  0  0  0  0  0  0  0  0
    2.1283    6.7322    6.9000 H   0  0  0  0  0  0  0  0  0  0  0  0
   13.1213    6.7322    6.9000 H   0  0  0  0  0  0  0  0  0  0  0  0
    6.9143    0.0015    6.9000 C   0  0  0  0  0  0  0  0  0  0  0  0
    6.9143   10.9945    6.9000 C   0  0  0  0  0  0  0  0  0  0  0  0
    6.1838    1.1889    6.9000 C   0  0  0  0  0  0  0  0  0  0  0  0
    6.1838   12.1819    6.9000 C   0  0  0  0  0  0  0  0  0  0  0  0
    4.7849    1.2077    6.9000 C   0  0  0  0  0  0  0  0  0  0  0  0
    4.7849   12.2007    6.9000 C   0  0  0  0  0  0  0  0  0  0  0  0
    4.0774    0.0200    6.9000 C   0  0  0  0  0  0  0  0  0  0  0  0
    4.0774   11.0130    6.9000 C   0  0  0  0  0  0  0  0  0  0  0  0
    4.7960   -1.1721    6.9000 C   0  0  0  0  0  0  0  0  0  0  0  0
    4.7960    9.8209    6.9000 C   0  0  0  0  0  0  0  0  0  0  0  0
    6.1861   -1.1775    6.9000 C   0  0  0  0  0  0  0  0  0  0  0  0
    6.1861    9.8154    6.9000 C   0  0  0  0  0  0  0  0  0  0  0  0
    8.4544   -0.0001    6.9000 C   0  0  0  0  0  0  0  0  0  0  0  0
    8.4544   10.9929    6.9000 C   0  0  0  0  0  0  0  0  0  0  0  0
    2.5420    0.0137    6.9000 C   0  0  0  0  0  0  0  0  0  0  0  0
    2.5420   11.0066    6.9000 C   0  0  0  0  0  0  0  0  0  0  0  0
    0.0064    6.9266    6.9000 C   0  0  0  0  0  0  0  0  0  0  0  0
   10.9994    6.9266    6.9000 C   0  0  0  0  0  0  0  0  0  0  0  0
   -1.1808    6.1939    6.9000 C   0  0  0  0  0  0  0  0  0  0  0  0
    9.8122    6.1939    6.9000 C   0  0  0  0  0  0  0  0  0  0  0  0
   -1.1954    4.8002    6.9000 C   0  0  0  0  0  0  0  0  0  0  0  0
    9.7975    4.8002    6.9000 C   0  0  0  0  0  0  0  0  0  0  0  0
   -0.0078    4.0903    6.9000 C   0  0  0  0  0  0  0  0  0  0  0  0
   10.9851    4.0903    6.9000 C   0  0  0  0  0  0  0  0  0  0  0  0
    1.1839    4.8086    6.9000 C   0  0  0  0  0  0  0  0  0  0  0  0
   12.1769    4.8086    6.9000 C   0  0  0  0  0  0  0  0  0  0  0  0
    1.1883    6.2034    6.9000 C   0  0  0  0  0  0  0  0  0  0  0  0
   12.1813    6.2034    6.9000 C   0  0  0  0  0  0  0  0  0  0  0  0
   -0.0114    8.4637    6.9000 C   0  0  0  0  0  0  0  0  0  0  0  0
   10.9816    8.4637    6.9000 C   0  0  0  0  0  0  0  0  0  0  0  0
   -0.0190    2.5512    6.9000 C   0  0  0  0  0  0  0  0  0  0  0  0
   10.9740    2.5512    6.9000 C   0  0  0  0  0  0  0  0  0  0  0  0
   -0.0008    0.0000   -1.9747 C   0  0  0  0  0  0  0  0  0  0  0  0
   -0.0008    0.0000   11.8253 C   0  0  0  0  0  0  0  0  0  0  0  0
   -0.0008   10.9930   -1.9747 C   0  0  0  0  0  0  0  0  0  0  0  0
   -0.0008   10.9930   11.8253 C   0  0  0  0  0  0  0  0  0  0  0  0
   10.9921    0.0000   -1.9747 C   0  0  0  0  0  0  0  0  0  0  0  0
   10.9921    0.0000   11.8253 C   0  0  0  0  0  0  0  0  0  0  0  0
   10.9921   10.9930   -1.9747 C   0  0  0  0  0  0  0  0  0  0  0  0
   10.9921   10.9930   11.8253 C   0  0  0  0  0  0  0  0  0  0  0  0
   -0.0015    0.0001   -0.6093 C   0  0  0  0  0  0  0  0  0  0  0  0
   -0.0015    0.0001   13.1907 C   0  0  0  0  0  0  0  0  0  0  0  0
   -0.0015   10.9931   -0.6093 C   0  0  0  0  0  0  0  0  0  0  0  0
   -0.0015   10.9931   13.1907 C   0  0  0  0  0  0  0  0  0  0  0  0
   10.9915    0.0001   -0.6093 C   0  0  0  0  0  0  0  0  0  0  0  0
   10.9915    0.0001   13.1907 C   0  0  0  0  0  0  0  0  0  0  0  0
   10.9915   10.9931   -0.6093 C   0  0  0  0  0  0  0  0  0  0  0  0
   10.9915   10.9931   13.1907 C   0  0  0  0  0  0  0  0  0  0  0  0
   -0.0015    0.0001    0.6093 C   0  0  0  0  0  0  0  0  0  0  0  0
   -0.0015    0.0001   14.4093 C   0  0  0  0  0  0  0  0  0  0  0  0
   -0.0015   10.9931    0.6093 C   0  0  0  0  0  0  0  0  0  0  0  0
   -0.0015   10.9931   14.4093 C   0  0  0  0  0  0  0  0  0  0  0  0
   10.9915    0.0001    0.6093 C   0  0  0  0  0  0  0  0  0  0  0  0
   10.9915    0.0001   14.4093 C   0  0  0  0  0  0  0  0  0  0  0  0
   10.9915   10.9931    0.6093 C   0  0  0  0  0  0  0  0  0  0  0  0
   10.9915   10.9931   14.4093 C   0  0  0  0  0  0  0  0  0  0  0  0
   -0.0008    0.0000    1.9742 C   0  0  0  0  0  0  0  0  0  0  0  0
   -0.0008    0.0000   15.7742 C   0  0  0  0  0  0  0  0  0  0  0  0
   -0.0008   10.9930    1.9742 C   0  0  0  0  0  0  0  0  0  0  0  0
   -0.0008   10.9930   15.7742 C   0  0  0  0  0  0  0  0  0  0  0  0
   10.9921    0.0000    1.9742 C   0  0  0  0  0  0  0  0  0  0  0  0
   10.9921    0.0000   15.7742 C   0  0  0  0  0  0  0  0  0  0  0  0
   10.9921   10.9930    1.9742 C   0  0  0  0  0  0  0  0  0  0  0  0
   10.9921   10.9930   15.7742 C   0  0  0  0  0  0  0  0  0  0  0  0
    6.8878    2.4346    6.9000 N   0  0  0  0  0  0  0  0  0  0  0  0
    8.5695    6.9034    6.9000 N   0  0  0  0  0  0  0  0  0  0  0  0
    0.0015   -0.0003   10.6758 N   0  0  0  0  0  0  0  0  0  0  0  0
    0.0015   10.9927   10.6758 N   0  0  0  0  0  0  0  0  0  0  0  0
   10.9945   -0.0003   10.6758 N   0  0  0  0  0  0  0  0  0  0  0  0
   10.9945   10.9927   10.6758 N   0  0  0  0  0  0  0  0  0  0  0  0
    0.0015   -0.0003    3.1246 N   0  0  0  0  0  0  0  0  0  0  0  0
    0.0015   10.9927    3.1246 N   0  0  0  0  0  0  0  0  0  0  0  0
   10.9945   -0.0003    3.1246 N   0  0  0  0  0  0  0  0  0  0  0  0
   10.9945   10.9927    3.1246 N   0  0  0  0  0  0  0  0  0  0  0  0
   -2.0141   -0.0211    8.0272 O   0  0  0  0  0  0  0  0  0  0  0  0
   -2.0141   10.9718    8.0272 O   0  0  0  0  0  0  0  0  0  0  0  0
    8.9788   -0.0211    8.0272 O   0  0  0  0  0  0  0  0  0  0  0  0
    8.9788   10.9718    8.0272 O   0  0  0  0  0  0  0  0  0  0  0  0
   -2.0141   -0.0211    5.7728 O   0  0  0  0  0  0  0  0  0  0  0  0
   -2.0141   10.9718    5.7728 O   0  0  0  0  0  0  0  0  0  0  0  0
    8.9788   -0.0211    5.7728 O   0  0  0  0  0  0  0  0  0  0  0  0
    8.9788   10.9718    5.7728 O   0  0  0  0  0  0  0  0  0  0  0  0
    2.0093    0.0112    8.0241 O   0  0  0  0  0  0  0  0  0  0  0  0
    2.0093   11.0041    8.0241 O   0  0  0  0  0  0  0  0  0  0  0  0
   13.0022    0.0112    8.0241 O   0  0  0  0  0  0  0  0  0  0  0  0
   13.0022   11.0041    8.0241 O   0  0  0  0  0  0  0  0  0  0  0  0
    2.0093    0.0112    5.7759 O   0  0  0  0  0  0  0  0  0  0  0  0
    2.0093   11.0041    5.7759 O   0  0  0  0  0  0  0  0  0  0  0  0
   13.0022    0.0112    5.7759 O   0  0  0  0  0  0  0  0  0  0  0  0
   13.0022   11.0041    5.7759 O   0  0  0  0  0  0  0  0  0  0  0  0
    6.2515    3.4623    6.9000 O   0  0  0  0  0  0  0  0  0  0  0  0
    8.1042    2.3846    6.9000 O   0  0  0  0  0  0  0  0  0  0  0  0
    0.0249   -2.0035    8.0277 O   0  0  0  0  0  0  0  0  0  0  0  0
    0.0249    8.9895    8.0277 O   0  0  0  0  0  0  0  0  0  0  0  0
   11.0179   -2.0035    8.0277 O   0  0  0  0  0  0  0  0  0  0  0  0
   11.0179    8.9895    8.0277 O   0  0  0  0  0  0  0  0  0  0  0  0
    0.0249   -2.0035    5.7723 O   0  0  0  0  0  0  0  0  0  0  0  0
    0.0249    8.9895    5.7723 O   0  0  0  0  0  0  0  0  0  0  0  0
   11.0179   -2.0035    5.7723 O   0  0  0  0  0  0  0  0  0  0  0  0
   11.0179    8.9895    5.7723 O   0  0  0  0  0  0  0  0  0  0  0  0
   -0.0075    2.0194    8.0237 O   0  0  0  0  0  0  0  0  0  0  0  0
   -0.0075   13.0124    8.0237 O   0  0  0  0  0  0  0  0  0  0  0  0
   10.9855    2.0194    8.0237 O   0  0  0  0  0  0  0  0  0  0  0  0
   10.9855   13.0124    8.0237 O   0  0  0  0  0  0  0  0  0  0  0  0
   -0.0075    2.0195    5.7763 O   0  0  0  0  0  0  0  0  0  0  0  0
   -0.0075   13.0124    5.7763 O   0  0  0  0  0  0  0  0  0  0  0  0
   10.9855    2.0195    5.7763 O   0  0  0  0  0  0  0  0  0  0  0  0
   10.9855   13.0124    5.7763 O   0  0  0  0  0  0  0  0  0  0  0  0
    7.5311    6.2860    6.9000 O   0  0  0  0  0  0  0  0  0  0  0  0
    8.6304    8.1207    6.9000 O   0  0  0  0  0  0  0  0  0  0  0  0
  1 91  1  0  0  0  0
  1 99  1  0  0  0  0
  1107  1  0  0  0  0
  1117  1  0  0  0  0
  1125  1  0  0  0  0
  2 92  1  0  0  0  0
  2100  1  0  0  0  0
  2108  1  0  0  0  0
  2118  1  0  0  0  0
  2126  1  0  0  0  0
  3 93  1  0  0  0  0
  3101  1  0  0  0  0
  3109  1  0  0  0  0
  3119  1  0  0  0  0
  3127  1  0  0  0  0
  4 94  1  0  0  0  0
  4102  1  0  0  0  0
  4110  1  0  0  0  0
  4120  1  0  0  0  0
  4128  1  0  0  0  0
  5 87  1  0  0  0  0
  5 95  1  0  0  0  0
  5103  1  0  0  0  0
  5113  1  0  0  0  0
  5121  1  0  0  0  0
  6 88  1  0  0  0  0
  6 96  1  0  0  0  0
  6104  1  0  0  0  0
  6114  1  0  0  0  0
  6122  1  0  0  0  0
  7 89  1  0  0  0  0
  7 97  1  0  0  0  0
  7105  1  0  0  0  0
  7115  1  0  0  0  0
  7123  1  0  0  0  0
  8 90  1  0  0  0  0
  8 98  1  0  0  0  0
  8106  1  0  0  0  0
  8116  1  0  0  0  0
  8124  1  0  0  0  0
  9 25  1  0  0  0  0
 10 26  1  0  0  0  0
 11 29  1  0  0  0  0
 12 30  1  0  0  0  0
 13 31  1  0  0  0  0
 14 32  1  0  0  0  0
 15 41  1  0  0  0  0
 16 42  1  0  0  0  0
 17 45  1  0  0  0  0
 18 46  1  0  0  0  0
 19 47  1  0  0  0  0
 20 48  1  0  0  0  0
 21 23  1  0  0  0  0
 21 31  1  0  0  0  0
 21 33  1  0  0  0  0
 22 24  1  0  0  0  0
 22 32  1  0  0  0  0
 22 34  1  0  0  0  0
 23 25  1  0  0  0  0
 23 85  1  0  0  0  0
 24 26  1  0  0  0  0
 25 27  1  0  0  0  0
 26 28  1  0  0  0  0
 27 29  1  0  0  0  0
 27 35  1  0  0  0  0
 28 30  1  0  0  0  0
 28 36  1  0  0  0  0
 29 31  1  0  0  0  0
 30 32  1  0  0  0  0
 33 97  1  0  0  0  0
 33101  1  0  0  0  0
 34 98  1  0  0  0  0
 34102  1  0  0  0  0
 35103  1  0  0  0  0
 35107  1  0  0  0  0
 36104  1  0  0  0  0
 36108  1  0  0  0  0
 37 39  1  0  0  0  0
 37 47  1  0  0  0  0
 37 49  1  0  0  0  0
 38 40  1  0  0  0  0
 38 48  1  0  0  0  0
 38 50  1  0  0  0  0
 39 41  1  0  0  0  0
 40 42  1  0  0  0  0
 40 86  1  0  0  0  0
 41 43  1  0  0  0  0
 42 44  1  0  0  0  0
 43 45  1  0  0  0  0
 43 51  1  0  0  0  0
 44 46  1  0  0  0  0
 44 52  1  0  0  0  0
 45 47  1  0  0  0  0
 46 48  1  0  0  0  0
 49114  1  0  0  0  0
 49118  1  0  0  0  0
 50116  1  0  0  0  0
 50120  1  0  0  0  0
 51121  1  0  0  0  0
 51125  1  0  0  0  0
 52123  1  0  0  0  0
 52127  1  0  0  0  0
 53 61  1  0  0  0  0
 54 62  1  0  0  0  0
 54 87  1  0  0  0  0
 55 63  1  0  0  0  0
 56 64  1  0  0  0  0
 56 88  1  0  0  0  0
 57 65  1  0  0  0  0
 58 66  1  0  0  0  0
 58 89  1  0  0  0  0
 59 67  1  0  0  0  0
 60 68  1  0  0  0  0
 60 90  1  0  0  0  0
 61 69  1  0  0  0  0
 62 70  1  0  0  0  0
 63 71  1  0  0  0  0
 64 72  1  0  0  0  0
 65 73  1  0  0  0  0
 66 74  1  0  0  0  0
 67 75  1  0  0  0  0
 68 76  1  0  0  0  0
 69 77  1  0  0  0  0
 70 78  1  0  0  0  0
 71 79  1  0  0  0  0
 72 80  1  0  0  0  0
 73 81  1  0  0  0  0
 74 82  1  0  0  0  0
 75 83  1  0  0  0  0
 76 84  1  0  0  0  0
 77 91  1  0  0  0  0
 79 92  1  0  0  0  0
 81 93  1  0  0  0  0
 83 94  1  0  0  0  0
 85111  1  0  0  0  0
 85112  1  0  0  0  0
 86129  1  0  0  0  0
 86130  1  0  0  0  0
M  END
$$$$
