@<TRIPOS>MOLECULE
no2_bdc_cu2_paddlewheel_pillared_sql_bipy
132 138 0 0 0
SMALL
NO_CHARGES

@<TRIPOS>ATOM
     1 Cu1        -0.020150     0.001663     5.483768 Cu   1 RES 0.0000
     2 Cu2        -0.020150    10.994632     5.483768 Cu   1 RES 0.0000
     3 Cu3        10.972819     0.001663     5.483768 Cu   1 RES 0.0000
     4 Cu4        10.972819    10.994632     5.483768 Cu   1 RES 0.0000
     5 Cu5        -0.020150     0.001662     8.316224 Cu   1 RES 0.0000
     6 Cu6        -0.020150    10.994632     8.316224 Cu   1 RES 0.0000
     7 Cu7        10.972820     0.001662     8.316224 Cu   1 RES 0.0000
     8 Cu8        10.972820    10.994632     8.316224 Cu   1 RES 0.0000
     9 H9         4.280840     2.162976     6.899999 H    1 RES 0.0000
    10 H10        4.280840    13.155946     6.899999 H    1 RES 0.0000
    11 H11        4.271578    -2.114915     6.900000 H    1 RES 0.0000
    12 H12        4.271578     8.878055     6.900000 H    1 RES 0.0000
    13 H13        6.721023    -2.111168     6.899999 H    1 RES 0.0000
    14 H14        6.721023     8.881801     6.899999 H    1 RES 0.0000
    15 H15       -2.143060     4.284854     6.899999 H    1 RES 0.0000
    16 H16        8.849909     4.284854     6.899999 H    1 RES 0.0000
    17 H17        2.126924     4.283097     6.900000 H    1 RES 0.0000
    18 H18       13.119894     4.283097     6.900000 H    1 RES 0.0000
    19 H19        2.128317     6.732175     6.900000 H    1 RES 0.0000
    20 H20       13.121286     6.732175     6.900000 H    1 RES 0.0000
    21 C21        6.914305     0.001520     6.900000 C    1 RES 0.0000
    22 C22        6.914305    10.994490     6.900000 C    1 RES 0.0000
    23 C23        6.183816     1.188899     6.899999 C    1 RES 0.0000
    24 C24        6.183816    12.181868     6.899999 C    1 RES 0.0000
    25 C25        4.784910     1.207730     6.899999 C    1 RES 0.0000
    26 C26        4.784910    12.200700     6.899999 C    1 RES 0.0000
    27 C27        4.077377     0.020045     6.900000 C    1 RES 0.0000
    28 C28        4.077377    11.013015     6.900000 C    1 RES 0.0000
    29 C29        4.795995    -1.172082     6.899999 C    1 RES 0.0000
    30 C30        4.795995     9.820888     6.899999 C    1 RES 0.0000
    31 C31        6.186128    -1.177524     6.899999 C    1 RES 0.0000
    32 C32        6.186128     9.815446     6.899999 C    1 RES 0.0000
    33 C33        8.454406    -0.000104     6.900002 C    1 RES 0.0000
    34 C34        8.454406    10.992865     6.900002 C    1 RES 0.0000
    35 C35        2.542025     0.013678     6.900003 C    1 RES 0.0000
    36 C36        2.542025    11.006648     6.900003 C    1 RES 0.0000
    37 C37        0.006428     6.926598     6.900000 C    1 RES 0.0000
    38 C38       10.999398     6.926598     6.900000 C    1 RES 0.0000
    39 C39       -1.180762     6.193946     6.899999 C    1 RES 0.0000
    40 C40        9.812208     6.193946     6.899999 C    1 RES 0.0000
    41 C41       -1.195430     4.800157     6.899999 C    1 RES 0.0000
    42 C42        9.797540     4.800157     6.899999 C    1 RES 0.0000
    43 C43       -0.007827     4.090289     6.900000 C    1 RES 0.0000
    44 C44       10.985143     4.090289     6.900000 C    1 RES 0.0000
    45 C45        1.183915     4.808609     6.900000 C    1 RES 0.0000
    46 C46       12.176885     4.808609     6.900000 C    1 RES 0.0000
    47 C47        1.188294     6.203383     6.899999 C    1 RES 0.0000
    48 C48       12.181263     6.203383     6.899999 C    1 RES 0.0000
    49 C49       -0.011376     8.463664     6.900002 C    1 RES 0.0000
    50 C50       10.981593     8.463664     6.900002 C    1 RES 0.0000
    51 C51       -0.018978     2.551158     6.900002 C    1 RES 0.0000
    52 C52       10.973991     2.551158     6.900002 C    1 RES 0.0000
    53 C53       -0.000824     0.000038    -1.974653 C    1 RES 0.0000
    54 C54       -0.000824     0.000038    11.825347 C    1 RES 0.0000
    55 C55       -0.000824    10.993008    -1.974653 C    1 RES 0.0000
    56 C56       -0.000824    10.993008    11.825347 C    1 RES 0.0000
    57 C57       10.992145     0.000038    -1.974653 C    1 RES 0.0000
    58 C58       10.992145     0.000038    11.825347 C    1 RES 0.0000
    59 C59       10.992145    10.993008    -1.974653 C    1 RES 0.0000
    60 C60       10.992145    10.993008    11.825347 C    1 RES 0.0000
    61 C61       -0.001474     0.000122    -0.609283 C    1 RES 0.0000
    62 C62       -0.001474     0.000122    13.190717 C    1 RES 0.0000
    63 C63       -0.001474    10.993091    -0.609283 C    1 RES 0.0000
    64 C64       -0.001474    10.993091    13.190717 C    1 RES 0.0000
    65 C65       10.991496     0.000122    -0.609283 C    1 RES 0.0000
    66 C66       10.991496     0.000122    13.190717 C    1 RES 0.0000
    67 C67       10.991496    10.993091    -0.609283 C    1 RES 0.0000
    68 C68       10.991496    10.993091    13.190717 C    1 RES 0.0000
    69 C69       -0.001474     0.000122     0.609346 C    1 RES 0.0000
    70 C70       -0.001474     0.000122    14.409346 C    1 RES 0.0000
    71 C71       -0.001474    10.993091     0.609346 C    1 RES 0.0000
    72 C72       -0.001474    10.993091    14.409346 C    1 RES 0.0000
    73 C73       10.991496     0.000122     0.609346 C    1 RES 0.0000
    74 C74       10.991496     0.000122    14.409346 C    1 RES 0.0000
    75 C75       10.991496    10.993091     0.609346 C    1 RES 0.0000
    76 C76       10.991496    10.993091    14.409346 C    1 RES 0.0000
    77 C77       -0.000825     0.000038     1.974242 C    1 RES 0.0000
    78 C78       -0.000825     0.000038    15.774242 C    1 RES 0.0000
    79 C79       -0.000825    10.993008     1.974242 C    1 RES 0.0000
    80 C80       -0.000825    10.993008    15.774242 C    1 RES 0.0000
    81 C81       10.992145     0.000038     1.974242 C    1 RES 0.0000
    82 C82       10.992145     0.000038    15.774242 C    1 RES 0.0000
    83 C83       10.992145    10.993008     1.974242 C    1 RES 0.0000
    84 C84       10.992145    10.993008    15.774242 C    1 RES 0.0000
    85 N85        6.887776     2.434624     6.900000 N    1 RES 0.0000
    86 N86        8.569547     6.903410     6.900000 N    1 RES 0.0000
    87 N87        0.001548    -0.000251    10.675769 N    1 RES 0.0000
    88 N88        0.001548    10.992718    10.675769 N    1 RES 0.0000
    89 N89       10.994517    -0.000251    10.675769 N    1 RES 0.0000
    90 N90       10.994517    10.992718    10.675769 N    1 RES 0.0000
    91 N91        0.001548    -0.000252     3.124584 N    1 RES 0.0000
    92 N92        0.001548    10.992718     3.124584 N    1 RES 0.0000
    93 N93       10.994518    -0.000252     3.124584 N    1 RES 0.0000
    94 N94       10.994518    10.992718     3.124584 N    1 RES 0.0000
    95 O95       -2.014122    -0.021132     8.027245 O    1 RES 0.0000
    96 O96       -2.014122    10.971838     8.027245 O    1 RES 0.0000
    97 O97        8.978847    -0.021132     8.027245 O    1 RES 0.0000
    98 O98        8.978847    10.971838     8.027245 O    1 RES 0.0000
    99 O99       -2.014129    -0.021132     5.772753 O    1 RES 0.0000
   100 O100      -2.014129    10.971838     5.772753 O    1 RES 0.0000
   101 O101       8.978841    -0.021132     5.772753 O    1 RES 0.0000
   102 O102       8.978841    10.971838     5.772753 O    1 RES 0.0000
   103 O103       2.009275     0.011174     8.024140 O    1 RES 0.0000
   104 O104       2.009275    11.004143     8.024140 O    1 RES 0.0000
   105 O105      13.002245     0.011174     8.024140 O    1 RES 0.0000
   106 O106      13.002245    11.004143     8.024140 O    1 RES 0.0000
   107 O107       2.009280     0.011174     5.775859 O    1 RES 0.0000
   108 O108       2.009280    11.004143     5.775859 O    1 RES 0.0000
   109 O109      13.002250     0.011174     5.775859 O    1 RES 0.0000
   110 O110      13.002250    11.004143     5.775859 O    1 RES 0.0000
   111 O111       6.251550     3.462347     6.900001 O    1 RES 0.0000
   112 O112       8.104197     2.384556     6.900003 O    1 RES 0.0000
   113 O113       8.104197    13.377526     6.900003 O    1 RES 0.0000
   114 O114       0.024893    -2.003499     8.027708 O    1 RES 0.0000
   115 O115       0.024893     8.989470     8.027708 O    1 RES 0.0000
   116 O116      11.017862    -2.003499     8.027708 O    1 RES 0.0000
   117 O117      11.017862     8.989470     8.027708 O    1 RES 0.0000
   118 O118       0.024893    -2.003505     5.772290 O    1 RES 0.0000
   119 O119       0.024893     8.989465     5.772290 O    1 RES 0.0000
   120 O120      11.017862    -2.003505     5.772290 O    1 RES 0.0000
   121 O121      11.017862     8.989465     5.772290 O    1 RES 0.0000
   122 O122      -0.007455     2.019445     8.023716 O    1 RES 0.0000
   123 O123      -0.007455    13.012414     8.023716 O    1 RES 0.0000
   124 O124      10.985515     2.019445     8.023716 O    1 RES 0.0000
   125 O125      10.985515    13.012414     8.023716 O    1 RES 0.0000
   126 O126      -0.007455     2.019450     5.776282 O    1 RES 0.0000
   127 O127      -0.007455    13.012420     5.776282 O    1 RES 0.0000
   128 O128      10.985515     2.019450     5.776282 O    1 RES 0.0000
   129 O129      10.985515    13.012420     5.776282 O    1 RES 0.0000
   130 O130       7.531076     6.285989     6.900001 O    1 RES 0.0000
   131 O131      -2.362614     8.120723     6.900003 O    1 RES 0.0000
   132 O132       8.630356     8.120723     6.900003 O    1 RES 0.0000
@<TRIPOS>BOND
     1      1     91 1
     2      1     99 1
     3      1    107 1
     4      1    118 1
     5      1    126 1
     6      2     92 1
     7      2    100 1
     8      2    108 1
     9      2    119 1
    10      2    127 1
    11      3     93 1
    12      3    101 1
    13      3    109 1
    14      3    120 1
    15      3    128 1
    16      4     94 1
    17      4    102 1
    18      4    110 1
    19      4    121 1
    20      4    129 1
    21      5     87 1
    22      5     95 1
    23      5    103 1
    24      5    114 1
    25      5    122 1
    26      6     88 1
    27      6     96 1
    28      6    104 1
    29      6    115 1
    30      6    123 1
    31      7     89 1
    32      7     97 1
    33      7    105 1
    34      7    116 1
    35      7    124 1
    36      8     90 1
    37      8     98 1
    38      8    106 1
    39      8    117 1
    40      8    125 1
    41      9     25 1
    42     10     26 1
    43     11     29 1
    44     12     30 1
    45     13     31 1
    46     14     32 1
    47     15     41 1
    48     16     42 1
    49     17     45 1
    50     18     46 1
    51     19     47 1
    52     20     48 1
    53     21     23 1
    54     21     31 1
    55     21     33 1
    56     22     24 1
    57     22     32 1
    58     22     34 1
    59     23     25 1
    60     23     85 1
    61     24     26 1
    62     25     27 1
    63     26     28 1
    64     27     29 1
    65     27     35 1
    66     28     30 1
    67     28     36 1
    68     29     31 1
    69     30     32 1
    70     33     97 1
    71     33    101 1
    72     34     98 1
    73     34    102 1
    74     35    103 1
    75     35    107 1
    76     36    104 1
    77     36    108 1
    78     37     39 1
    79     37     47 1
    80     37     49 1
    81     38     40 1
    82     38     48 1
    83     38     50 1
    84     39     41 1
    85     40     42 1
    86     40     86 1
    87     41     43 1
    88     42     44 1
    89     43     45 1
    90     43     51 1
    91     44     46 1
    92     44     52 1
    93     45     47 1
    94     46     48 1
    95     49    115 1
    96     49    119 1
    97     50    117 1
    98     50    121 1
    99     51    122 1
   100     51    126 1
   101     52    124 1
   102     52    128 1
   103     53     61 1
   104     54     62 1
   105     54     87 1
   106     55     63 1
   107     56     64 1
   108     56     88 1
   109     57     65 1
   110     58     66 1
   111     58     89 1
   112     59     67 1
   113     60     68 1
   114     60     90 1
   115     61     69 1
   116     62     70 1
   117     63     71 1
   118     64     72 1
   119     65     73 1
   120     66     74 1
   121     67     75 1
   122     68     76 1
   123     69     77 1
   124     70     78 1
   125     71     79 1
   126     72     80 1
   127     73     81 1
   128     74     82 1
   129     75     83 1
   130     76     84 1
   131     77     91 1
   132     79     92 1
   133     81     93 1
   134     83     94 1
   135     85    111 1
   136     85    112 1
   137     86    130 1
   138     86    132 1
