@<TRIPOS>MOLECULE
tpdc_zn4o_pcu_ip2_off380
723 816 0 0 0
SMALL
NO_CHARGES

@<TRIPOS>ATOM
     1 Zn1        11.602672     9.488896     9.528876 Zn   1 RES 0.0000
     2 Zn2         9.485276    11.598087     9.530992 Zn   1 RES 0.0000
     3 Zn3         9.482299     9.487237    11.555829 Zn   1 RES 0.0000
     4 Zn4        11.602279    11.598363    11.553915 Zn   1 RES 0.0000
     5 Zn5        -1.472594    -3.586999    -3.541561 Zn   1 RES 0.0000
     6 Zn6        -1.472594    -3.586999    17.544439 Zn   1 RES 0.0000
     7 Zn7        -1.472594    17.499001    -3.541561 Zn   1 RES 0.0000
     8 Zn8        -1.472594    17.499001    17.544439 Zn   1 RES 0.0000
     9 Zn9        19.613406    -3.586999    -3.541561 Zn   1 RES 0.0000
    10 Zn10       19.613406    -3.586999    17.544439 Zn   1 RES 0.0000
    11 Zn11       19.613406    17.499001    -3.541561 Zn   1 RES 0.0000
    12 Zn12       19.613406    17.499001    17.544439 Zn   1 RES 0.0000
    13 Zn13       -3.591609    -1.476041    -3.543639 Zn   1 RES 0.0000
    14 Zn14       -3.591609    -1.476041    17.542361 Zn   1 RES 0.0000
    15 Zn15       -3.591609    19.609959    -3.543639 Zn   1 RES 0.0000
    16 Zn16       -3.591609    19.609959    17.542361 Zn   1 RES 0.0000
    17 Zn17       17.494391    -1.476041    -3.543639 Zn   1 RES 0.0000
    18 Zn18       17.494391    -1.476041    17.542361 Zn   1 RES 0.0000
    19 Zn19       17.494391    19.609959    -3.543639 Zn   1 RES 0.0000
    20 Zn20       17.494391    19.609959    17.542361 Zn   1 RES 0.0000
    21 Zn21       -3.588546    -3.585454    -1.519193 Zn   1 RES 0.0000
    22 Zn22       -3.588546    -3.585454    19.566807 Zn   1 RES 0.0000
    23 Zn23       -3.588546    17.500546    -1.519193 Zn   1 RES 0.0000
    24 Zn24       -3.588546    17.500546    19.566807 Zn   1 RES 0.0000
    25 Zn25       17.497454    -3.585454    -1.519193 Zn   1 RES 0.0000
    26 Zn26       17.497454    -3.585454    19.566807 Zn   1 RES 0.0000
    27 Zn27       17.497454    17.500546    -1.519193 Zn   1 RES 0.0000
    28 Zn28       17.497454    17.500546    19.566807 Zn   1 RES 0.0000
    29 Zn29       -1.471172    -1.475495    -1.516481 Zn   1 RES 0.0000
    30 Zn30       -1.471172    -1.475495    19.569519 Zn   1 RES 0.0000
    31 Zn31       -1.471172    19.610505    -1.516481 Zn   1 RES 0.0000
    32 Zn32       -1.471172    19.610505    19.569519 Zn   1 RES 0.0000
    33 Zn33       19.614828    -1.475495    -1.516481 Zn   1 RES 0.0000
    34 Zn34       19.614828    -1.475495    19.569519 Zn   1 RES 0.0000
    35 Zn35       19.614828    19.610505    -1.516481 Zn   1 RES 0.0000
    36 Zn36       19.614828    19.610505    19.569519 Zn   1 RES 0.0000
    37 H37       15.569628    12.678467    10.614191 H    1 RES 0.0000
    38 H38       -3.067319    12.685837    10.563548 H    1 RES 0.0000
    39 H39       18.018681    12.685837    10.563548 H    1 RES 0.0000
    40 H40       -1.188022     8.403209    10.542258 H    1 RES 0.0000
    41 H41       19.897978     8.403209    10.542258 H    1 RES 0.0000
    42 H42        1.187346     8.402654    10.539061 H    1 RES 0.0000
    43 H43       22.273346     8.402654    10.539061 H    1 RES 0.0000
    44 H44        3.067405     8.401961    10.553703 H    1 RES 0.0000
    45 H45       24.153405     8.401961    10.553703 H    1 RES 0.0000
    46 H46        5.515869     8.408996    10.610834 H    1 RES 0.0000
    47 H47        5.518347    12.674435    10.473872 H    1 RES 0.0000
    48 H48        3.069748    12.684881    10.530940 H    1 RES 0.0000
    49 H49       24.155748    12.684881    10.530940 H    1 RES 0.0000
    50 H50        1.188558    12.686501    10.546951 H    1 RES 0.0000
    51 H51       22.274558    12.686501    10.546951 H    1 RES 0.0000
    52 H52       -1.186244    12.686776    10.549100 H    1 RES 0.0000
    53 H53       19.899756    12.686776    10.549100 H    1 RES 0.0000
    54 H54       -3.068888     8.403625    10.529087 H    1 RES 0.0000
    55 H55       18.017112     8.403625    10.529087 H    1 RES 0.0000
    56 H56       15.569516     8.412782    10.469744 H    1 RES 0.0000
    57 H57        8.419189    15.544508    10.469800 H    1 RES 0.0000
    58 H58        8.403428    -3.083147    10.527250 H    1 RES 0.0000
    59 H59        8.403428    18.002853    10.527250 H    1 RES 0.0000
    60 H60       12.685037    -1.187921    10.548205 H    1 RES 0.0000
    61 H61       12.685037    19.898079    10.548205 H    1 RES 0.0000
    62 H62       12.684260     1.187294    10.547410 H    1 RES 0.0000
    63 H63       12.684260    22.273294    10.547410 H    1 RES 0.0000
    64 H64       12.682374     3.080670    10.531854 H    1 RES 0.0000
    65 H65       12.682374    24.166670    10.531854 H    1 RES 0.0000
    66 H66       12.666507     5.541348    10.474187 H    1 RES 0.0000
    67 H67        8.417802     5.541194    10.610750 H    1 RES 0.0000
    68 H68        8.402571     3.080861    10.553461 H    1 RES 0.0000
    69 H69        8.402571    24.166861    10.553461 H    1 RES 0.0000
    70 H70        8.402204     1.187477    10.539115 H    1 RES 0.0000
    71 H71        8.402204    22.273477    10.539115 H    1 RES 0.0000
    72 H72        8.402693    -1.188958    10.541881 H    1 RES 0.0000
    73 H73        8.402693    19.897042    10.541881 H    1 RES 0.0000
    74 H74       12.684761    -3.082314    10.561897 H    1 RES 0.0000
    75 H75       12.684761    18.003686    10.561897 H    1 RES 0.0000
    76 H76       12.669605    15.546267    10.616201 H    1 RES 0.0000
    77 H77       10.469523     8.408792    15.566313 H    1 RES 0.0000
    78 H78       10.530641     8.397229    -3.085177 H    1 RES 0.0000
    79 H79       10.530641     8.397229    18.000823 H    1 RES 0.0000
    80 H80       10.550198    12.684502    -1.185470 H    1 RES 0.0000
    81 H81       10.550198    12.684502    19.900530 H    1 RES 0.0000
    82 H82       10.547868    12.684304     1.187946 H    1 RES 0.0000
    83 H83       10.547868    12.684304    22.273946 H    1 RES 0.0000
    84 H84       10.532758    12.691590     3.086431 H    1 RES 0.0000
    85 H85       10.532758    12.691590    24.172431 H    1 RES 0.0000
    86 H86       10.471192    12.679630     5.520312 H    1 RES 0.0000
    87 H87       10.613722     8.406277     5.519552 H    1 RES 0.0000
    88 H88       10.555266     8.395703     3.085479 H    1 RES 0.0000
    89 H89       10.555266     8.395703    24.171479 H    1 RES 0.0000
    90 H90       10.540972     8.404665     1.187286 H    1 RES 0.0000
    91 H91       10.540972     8.404665    22.273286 H    1 RES 0.0000
    92 H92       10.543181     8.404993    -1.186920 H    1 RES 0.0000
    93 H93       10.543181     8.404993    19.899080 H    1 RES 0.0000
    94 H94       10.563848    12.691640    -3.083888 H    1 RES 0.0000
    95 H95       10.563848    12.691640    18.002112 H    1 RES 0.0000
    96 H96       10.616940    12.681745    15.566262 H    1 RES 0.0000
    97 H97        2.495929    -0.397774    -2.457364 H    1 RES 0.0000
    98 H98        2.495929    -0.397774    18.628636 H    1 RES 0.0000
    99 H99        2.495929    20.688226    -2.457364 H    1 RES 0.0000
   100 H100       2.495929    20.688226    18.628636 H    1 RES 0.0000
   101 H101      23.581929    -0.397774    -2.457364 H    1 RES 0.0000
   102 H102      23.581929    -0.397774    18.628636 H    1 RES 0.0000
   103 H103      23.581929    20.688226    -2.457364 H    1 RES 0.0000
   104 H104      23.581929    20.688226    18.628636 H    1 RES 0.0000
   105 H105       4.944481    -0.389694    -2.514199 H    1 RES 0.0000
   106 H106       4.944481    -0.389694    18.571801 H    1 RES 0.0000
   107 H107       4.944481    20.696306    -2.514199 H    1 RES 0.0000
   108 H108       4.944481    20.696306    18.571801 H    1 RES 0.0000
   109 H109       6.824356    16.412257    -2.531189 H    1 RES 0.0000
   110 H110       6.824356    16.412257    18.554811 H    1 RES 0.0000
   111 H111       9.199787    16.412306    -2.536193 H    1 RES 0.0000
   112 H112       9.199787    16.412306    18.549807 H    1 RES 0.0000
   113 H113      11.081587    16.412954    -2.522940 H    1 RES 0.0000
   114 H114      11.081587    16.412954    18.563060 H    1 RES 0.0000
   115 H115      13.530241    16.421458    -2.465373 H    1 RES 0.0000
   116 H116      13.530241    16.421458    18.620627 H    1 RES 0.0000
   117 H117      13.528192    -0.398381    -2.597982 H    1 RES 0.0000
   118 H118      13.528192    -0.398381    18.488018 H    1 RES 0.0000
   119 H119      13.528192    20.687619    -2.597982 H    1 RES 0.0000
   120 H120      13.528192    20.687619    18.488018 H    1 RES 0.0000
   121 H121      11.080632    -0.390548    -2.542388 H    1 RES 0.0000
   122 H122      11.080632    -0.390548    18.543612 H    1 RES 0.0000
   123 H123      11.080632    20.695452    -2.542388 H    1 RES 0.0000
   124 H124      11.080632    20.695452    18.543612 H    1 RES 0.0000
   125 H125       9.200369    -0.390351    -2.529024 H    1 RES 0.0000
   126 H126       9.200369    -0.390351    18.556976 H    1 RES 0.0000
   127 H127       9.200369    20.695649    -2.529024 H    1 RES 0.0000
   128 H128       9.200369    20.695649    18.556976 H    1 RES 0.0000
   129 H129       6.825163    -0.390025    -2.528260 H    1 RES 0.0000
   130 H130       6.825163    -0.390025    18.557740 H    1 RES 0.0000
   131 H131       6.825163    20.695975    -2.528260 H    1 RES 0.0000
   132 H132       6.825163    20.695975    18.557740 H    1 RES 0.0000
   133 H133       4.943436    16.413462    -2.545477 H    1 RES 0.0000
   134 H134       4.943436    16.413462    18.540523 H    1 RES 0.0000
   135 H135       2.495039    16.422953    -2.600738 H    1 RES 0.0000
   136 H136       2.495039    16.422953    18.485262 H    1 RES 0.0000
   137 H137      23.581039    16.422953    -2.600738 H    1 RES 0.0000
   138 H138      23.581039    16.422953    18.485262 H    1 RES 0.0000
   139 H139      16.431085     2.471896    -2.601928 H    1 RES 0.0000
   140 H140      16.431085     2.471896    18.484072 H    1 RES 0.0000
   141 H141      16.431085    23.557896    -2.601928 H    1 RES 0.0000
   142 H142      16.431085    23.557896    18.484072 H    1 RES 0.0000
   143 H143      16.415959     4.932528    -2.545130 H    1 RES 0.0000
   144 H144      16.415959     4.932528    18.540870 H    1 RES 0.0000
   145 H145      -0.389554     6.825010    -2.528090 H    1 RES 0.0000
   146 H146      -0.389554     6.825010    18.557910 H    1 RES 0.0000
   147 H147      20.696446     6.825010    -2.528090 H    1 RES 0.0000
   148 H148      20.696446     6.825010    18.557910 H    1 RES 0.0000
   149 H149      -0.389899     9.201316    -2.528797 H    1 RES 0.0000
   150 H150      -0.389899     9.201316    18.557203 H    1 RES 0.0000
   151 H151      20.696101     9.201316    -2.528797 H    1 RES 0.0000
   152 H152      20.696101     9.201316    18.557203 H    1 RES 0.0000
   153 H153      -0.390355    11.094643    -2.543078 H    1 RES 0.0000
   154 H154      -0.390355    11.094643    18.542922 H    1 RES 0.0000
   155 H155      20.695645    11.094643    -2.543078 H    1 RES 0.0000
   156 H156      20.695645    11.094643    18.542922 H    1 RES 0.0000
   157 H157      -0.404776    13.553061    -2.598148 H    1 RES 0.0000
   158 H158      -0.404776    13.553061    18.487852 H    1 RES 0.0000
   159 H159      20.681224    13.553061    -2.598148 H    1 RES 0.0000
   160 H160      20.681224    13.553061    18.487852 H    1 RES 0.0000
   161 H161      16.430270    13.553181    -2.464213 H    1 RES 0.0000
   162 H162      16.430270    13.553181    18.621787 H    1 RES 0.0000
   163 H163      16.414039    11.096215    -2.521635 H    1 RES 0.0000
   164 H164      16.414039    11.096215    18.564365 H    1 RES 0.0000
   165 H165      16.413971     9.201398    -2.535191 H    1 RES 0.0000
   166 H166      16.413971     9.201398    18.550809 H    1 RES 0.0000
   167 H167      16.414430     6.825546    -2.531836 H    1 RES 0.0000
   168 H168      16.414430     6.825546    18.554164 H    1 RES 0.0000
   169 H169      -0.390302     4.931384    -2.513461 H    1 RES 0.0000
   170 H170      -0.390302     4.931384    18.572539 H    1 RES 0.0000
   171 H171      20.695698     4.931384    -2.513461 H    1 RES 0.0000
   172 H172      20.695698     4.931384    18.572539 H    1 RES 0.0000
   173 H173      -0.406435     2.471057    -2.457456 H    1 RES 0.0000
   174 H174      -0.406435     2.471057    18.628544 H    1 RES 0.0000
   175 H175      -0.406435    23.557057    -2.457456 H    1 RES 0.0000
   176 H176      -0.406435    23.557057    18.628544 H    1 RES 0.0000
   177 H177      20.679565     2.471057    -2.457456 H    1 RES 0.0000
   178 H178      20.679565     2.471057    18.628544 H    1 RES 0.0000
   179 H179      20.679565    23.557057    -2.457456 H    1 RES 0.0000
   180 H180      20.679565    23.557057    18.628544 H    1 RES 0.0000
   181 H181      -2.603886    16.418920     2.492170 H    1 RES 0.0000
   182 H182      -2.603886    16.418920    23.578170 H    1 RES 0.0000
   183 H183      18.482114    16.418920     2.492170 H    1 RES 0.0000
   184 H184      18.482114    16.418920    23.578170 H    1 RES 0.0000
   185 H185      -2.546366    16.407045     4.926084 H    1 RES 0.0000
   186 H186      18.539634    16.407045     4.926084 H    1 RES 0.0000
   187 H187      -2.529819    -0.392008     6.825357 H    1 RES 0.0000
   188 H188      -2.529819    20.693992     6.825357 H    1 RES 0.0000
   189 H189      18.556181    -0.392008     6.825357 H    1 RES 0.0000
   190 H190      18.556181    20.693992     6.825357 H    1 RES 0.0000
   191 H191      -2.530206    -0.392283     9.199454 H    1 RES 0.0000
   192 H192      -2.530206    20.693717     9.199454 H    1 RES 0.0000
   193 H193      18.555794    -0.392283     9.199454 H    1 RES 0.0000
   194 H194      18.555794    20.693717     9.199454 H    1 RES 0.0000
   195 H195      -2.542716    -0.384680    11.097744 H    1 RES 0.0000
   196 H196      -2.542716    20.701320    11.097744 H    1 RES 0.0000
   197 H197      18.543284    -0.384680    11.097744 H    1 RES 0.0000
   198 H198      18.543284    20.701320    11.097744 H    1 RES 0.0000
   199 H199      -2.601154    -0.396107    13.532472 H    1 RES 0.0000
   200 H200      -2.601154    20.689893    13.532472 H    1 RES 0.0000
   201 H201      18.484846    -0.396107    13.532472 H    1 RES 0.0000
   202 H202      18.484846    20.689893    13.532472 H    1 RES 0.0000
   203 H203      -2.463777    16.416579    13.532569 H    1 RES 0.0000
   204 H204      18.622223    16.416579    13.532569 H    1 RES 0.0000
   205 H205      -2.524644    16.406630    11.097309 H    1 RES 0.0000
   206 H206      18.561356    16.406630    11.097309 H    1 RES 0.0000
   207 H207      -2.537060    16.414436     9.198742 H    1 RES 0.0000
   208 H208      18.548940    16.414436     9.198742 H    1 RES 0.0000
   209 H209      -2.532343    16.414472     6.824760 H    1 RES 0.0000
   210 H210      18.553657    16.414472     6.824760 H    1 RES 0.0000
   211 H211      -2.516169    -0.383092     4.926868 H    1 RES 0.0000
   212 H212      -2.516169    20.702908     4.926868 H    1 RES 0.0000
   213 H213      18.569831    -0.383092     4.926868 H    1 RES 0.0000
   214 H214      18.569831    20.702908     4.926868 H    1 RES 0.0000
   215 H215      -2.455692    -0.393899     2.492882 H    1 RES 0.0000
   216 H216      -2.455692    -0.393899    23.578882 H    1 RES 0.0000
   217 H217      -2.455692    20.692101     2.492882 H    1 RES 0.0000
   218 H218      -2.455692    20.692101    23.578882 H    1 RES 0.0000
   219 H219      18.630308    -0.393899     2.492882 H    1 RES 0.0000
   220 H220      18.630308    -0.393899    23.578882 H    1 RES 0.0000
   221 H221      18.630308    20.692101     2.492882 H    1 RES 0.0000
   222 H222      18.630308    20.692101    23.578882 H    1 RES 0.0000
   223 C223      13.961440    10.544199    10.543041 C    1 RES 0.0000
   224 C224      15.433531    10.545509    10.541304 C    1 RES 0.0000
   225 C225      16.122790    11.751767    10.581587 C    1 RES 0.0000
   226 C226      -3.588671    11.744294    10.560727 C    1 RES 0.0000
   227 C227      17.497329    11.744294    10.560727 C    1 RES 0.0000
   228 C228      -2.871905    10.545144    10.544571 C    1 RES 0.0000
   229 C229      18.214095    10.545144    10.544571 C    1 RES 0.0000
   230 C230      -1.411920    10.545051    10.544742 C    1 RES 0.0000
   231 C231      19.674080    10.545051    10.544742 C    1 RES 0.0000
   232 C232      -0.686043     9.354670    10.542496 C    1 RES 0.0000
   233 C233      20.399957     9.354670    10.542496 C    1 RES 0.0000
   234 C234       0.686019     9.354462    10.541172 C    1 RES 0.0000
   235 C235      21.772019     9.354462    10.541172 C    1 RES 0.0000
   236 C236       1.412552    10.544492    10.542269 C    1 RES 0.0000
   237 C237      22.498552    10.544492    10.542269 C    1 RES 0.0000
   238 C238       2.872524    10.543590    10.542184 C    1 RES 0.0000
   239 C239      23.958524    10.543590    10.542184 C    1 RES 0.0000
   240 C240       3.588377     9.343787    10.556610 C    1 RES 0.0000
   241 C241      24.674377     9.343787    10.556610 C    1 RES 0.0000
   242 C242       4.962912     9.335841    10.579707 C    1 RES 0.0000
   243 C243       5.653125    10.541712    10.542501 C    1 RES 0.0000
   244 C244       7.124951    10.540125    10.544126 C    1 RES 0.0000
   245 C245       4.964269    11.748293    10.504734 C    1 RES 0.0000
   246 C246       3.589705    11.742609    10.527933 C    1 RES 0.0000
   247 C247      24.675705    11.742609    10.527933 C    1 RES 0.0000
   248 C248       0.686865    11.734981    10.544621 C    1 RES 0.0000
   249 C249      21.772865    11.734981    10.544621 C    1 RES 0.0000
   250 C250      -0.685206    11.734904    10.545911 C    1 RES 0.0000
   251 C251      20.400794    11.734904    10.545911 C    1 RES 0.0000
   252 C252      -3.588655     9.346023    10.527060 C    1 RES 0.0000
   253 C253      17.497345     9.346023    10.527060 C    1 RES 0.0000
   254 C254      16.122848     9.339365    10.502580 C    1 RES 0.0000
   255 C255      10.543775    13.952707    10.545501 C    1 RES 0.0000
   256 C256      10.544226    15.423543    10.544029 C    1 RES 0.0000
   257 C257       9.339296    16.108580    10.502315 C    1 RES 0.0000
   258 C258       9.346248    -3.601610    10.527345 C    1 RES 0.0000
   259 C259       9.346248    17.484390    10.527345 C    1 RES 0.0000
   260 C260      10.543896    -2.880834    10.544564 C    1 RES 0.0000
   261 C261      10.543896    18.205166    10.544564 C    1 RES 0.0000
   262 C262      10.543674    -1.416491    10.544409 C    1 RES 0.0000
   263 C263      10.543674    19.669509    10.544409 C    1 RES 0.0000
   264 C264      11.732692    -0.687285    10.545710 C    1 RES 0.0000
   265 C265      11.732692    20.398715    10.545710 C    1 RES 0.0000
   266 C266      11.732106     0.686254    10.545031 C    1 RES 0.0000
   267 C267      11.732106    21.772254    10.545031 C    1 RES 0.0000
   268 C268      10.543084     1.415428    10.542744 C    1 RES 0.0000
   269 C269      10.543084    22.501428    10.542744 C    1 RES 0.0000
   270 C270      10.542520     2.879594    10.542332 C    1 RES 0.0000
   271 C271      10.542520    23.965594    10.542332 C    1 RES 0.0000
   272 C272      11.740228     3.600535    10.528426 C    1 RES 0.0000
   273 C273      11.740228    24.686535    10.528426 C    1 RES 0.0000
   274 C274      11.746852     4.976257    10.503805 C    1 RES 0.0000
   275 C275      10.542250     5.661814    10.543020 C    1 RES 0.0000
   276 C276      10.543000     7.132704    10.545820 C    1 RES 0.0000
   277 C277       9.337575     4.976359    10.581114 C    1 RES 0.0000
   278 C278       9.344845     3.600535    10.556104 C    1 RES 0.0000
   279 C279       9.344845    24.686535    10.556104 C    1 RES 0.0000
   280 C280       9.354171     0.686025    10.541388 C    1 RES 0.0000
   281 C281       9.354171    21.772025    10.541388 C    1 RES 0.0000
   282 C282       9.354522    -0.687495    10.542427 C    1 RES 0.0000
   283 C283       9.354522    20.398505    10.542427 C    1 RES 0.0000
   284 C284      11.741917    -3.600938    10.560983 C    1 RES 0.0000
   285 C285      11.741917    17.485062    10.560983 C    1 RES 0.0000
   286 C286      11.748779    16.109184    10.585089 C    1 RES 0.0000
   287 C287      10.541220    10.543269    13.932829 C    1 RES 0.0000
   288 C288      10.542139    10.545186    15.415047 C    1 RES 0.0000
   289 C289      10.502501     9.341688    16.109770 C    1 RES 0.0000
   290 C290      10.528812     9.345866    -3.599028 C    1 RES 0.0000
   291 C291      10.528812     9.345866    17.486972 C    1 RES 0.0000
   292 C292      10.546051    10.544893    -2.879550 C    1 RES 0.0000
   293 C293      10.546051    10.544893    18.206450 C    1 RES 0.0000
   294 C294      10.546123    10.544879    -1.416587 C    1 RES 0.0000
   295 C295      10.546123    10.544879    19.669413 C    1 RES 0.0000
   296 C296      10.547250    11.732191    -0.685415 C    1 RES 0.0000
   297 C297      10.547250    11.732191    20.400585 C    1 RES 0.0000
   298 C298      10.545848    11.732239     0.687824 C    1 RES 0.0000
   299 C299      10.545848    11.732239    21.773824 C    1 RES 0.0000
   300 C300      10.543734    10.544387     1.418069 C    1 RES 0.0000
   301 C301      10.543734    10.544387    22.504069 C    1 RES 0.0000
   302 C302      10.543094    10.543821     2.881025 C    1 RES 0.0000
   303 C303      10.543094    10.543821    23.967025 C    1 RES 0.0000
   304 C304      10.528131    11.743067     3.600076 C    1 RES 0.0000
   305 C305      10.528131    11.743067    24.686076 C    1 RES 0.0000
   306 C306      10.502333    11.746649     4.977322 C    1 RES 0.0000
   307 C307      10.541915    10.542831     5.671814 C    1 RES 0.0000
   308 C308      10.542448    10.541340     7.153507 C    1 RES 0.0000
   309 C309      10.582174     9.339386     4.976638 C    1 RES 0.0000
   310 C310      10.557677     9.344226     3.599440 C    1 RES 0.0000
   311 C311      10.557677     9.344226    24.685440 C    1 RES 0.0000
   312 C312      10.542857     9.356885     0.687152 C    1 RES 0.0000
   313 C313      10.542857     9.356885    21.773152 C    1 RES 0.0000
   314 C314      10.544052     9.357085    -0.686122 C    1 RES 0.0000
   315 C315      10.544052     9.357085    20.399878 C    1 RES 0.0000
   316 C316      10.562421    11.743874    -3.599165 C    1 RES 0.0000
   317 C317      10.562421    11.743874    17.486835 C    1 RES 0.0000
   318 C318      10.584753    11.748733    16.109581 C    1 RES 0.0000
   319 C319       0.887445    -2.528989    -2.531344 C    1 RES 0.0000
   320 C320       0.887445    -2.528989    18.554656 C    1 RES 0.0000
   321 C321       0.887445    18.557011    -2.531344 C    1 RES 0.0000
   322 C322       0.887445    18.557011    18.554656 C    1 RES 0.0000
   323 C323      21.973445    -2.528989    -2.531344 C    1 RES 0.0000
   324 C324      21.973445    -2.528989    18.554656 C    1 RES 0.0000
   325 C325      21.973445    18.557011    -2.531344 C    1 RES 0.0000
   326 C326      21.973445    18.557011    18.554656 C    1 RES 0.0000
   327 C327       2.359434    -2.530257    -2.529122 C    1 RES 0.0000
   328 C328       2.359434    -2.530257    18.556878 C    1 RES 0.0000
   329 C329       2.359434    18.555743    -2.529122 C    1 RES 0.0000
   330 C330       2.359434    18.555743    18.556878 C    1 RES 0.0000
   331 C331      23.445434    -2.530257    -2.529122 C    1 RES 0.0000
   332 C332      23.445434    -2.530257    18.556878 C    1 RES 0.0000
   333 C333      23.445434    18.555743    -2.529122 C    1 RES 0.0000
   334 C334      23.445434    18.555743    18.556878 C    1 RES 0.0000
   335 C335       3.049365    -1.324346    -2.489613 C    1 RES 0.0000
   336 C336       3.049365    -1.324346    18.596387 C    1 RES 0.0000
   337 C337       3.049365    19.761654    -2.489613 C    1 RES 0.0000
   338 C338       3.049365    19.761654    18.596387 C    1 RES 0.0000
   339 C339      24.135365    -1.324346    -2.489613 C    1 RES 0.0000
   340 C340      24.135365    -1.324346    18.596387 C    1 RES 0.0000
   341 C341      24.135365    19.761654    -2.489613 C    1 RES 0.0000
   342 C342      24.135365    19.761654    18.596387 C    1 RES 0.0000
   343 C343       4.423881    -1.331715    -2.512687 C    1 RES 0.0000
   344 C344       4.423881    -1.331715    18.573313 C    1 RES 0.0000
   345 C345       4.423881    19.754285    -2.512687 C    1 RES 0.0000
   346 C346       4.423881    19.754285    18.573313 C    1 RES 0.0000
   347 C347      25.509881    -1.331715    -2.512687 C    1 RES 0.0000
   348 C348      25.509881    -1.331715    18.573313 C    1 RES 0.0000
   349 C349      25.509881    19.754285    -2.512687 C    1 RES 0.0000
   350 C350      25.509881    19.754285    18.573313 C    1 RES 0.0000
   351 C351       5.140107    -2.531283    -2.529062 C    1 RES 0.0000
   352 C352       5.140107    -2.531283    18.556938 C    1 RES 0.0000
   353 C353       5.140107    18.554717    -2.529062 C    1 RES 0.0000
   354 C354       5.140107    18.554717    18.556938 C    1 RES 0.0000
   355 C355       6.600119    -2.531757    -2.529618 C    1 RES 0.0000
   356 C356       6.600119    -2.531757    18.556382 C    1 RES 0.0000
   357 C357       6.600119    18.554243    -2.529618 C    1 RES 0.0000
   358 C358       6.600119    18.554243    18.556382 C    1 RES 0.0000
   359 C359       7.326033    -3.722140    -2.531233 C    1 RES 0.0000
   360 C360       7.326033    -3.722140    18.554767 C    1 RES 0.0000
   361 C361       7.326033    17.363860    -2.531233 C    1 RES 0.0000
   362 C362       7.326033    17.363860    18.554767 C    1 RES 0.0000
   363 C363       8.698127    -3.722090    -2.532666 C    1 RES 0.0000
   364 C364       8.698127    -3.722090    18.553334 C    1 RES 0.0000
   365 C365       8.698127    17.363910    -2.532666 C    1 RES 0.0000
   366 C366       8.698127    17.363910    18.553334 C    1 RES 0.0000
   367 C367       9.424809    -2.532229    -2.531586 C    1 RES 0.0000
   368 C368       9.424809    -2.532229    18.554414 C    1 RES 0.0000
   369 C369       9.424809    18.553771    -2.531586 C    1 RES 0.0000
   370 C370       9.424809    18.553771    18.554414 C    1 RES 0.0000
   371 C371      10.884835    -2.532180    -2.532017 C    1 RES 0.0000
   372 C372      10.884835    -2.532180    18.553983 C    1 RES 0.0000
   373 C373      10.884835    18.553820    -2.532017 C    1 RES 0.0000
   374 C374      10.884835    18.553820    18.553983 C    1 RES 0.0000
   375 C375      11.602093    -3.731047    -2.518277 C    1 RES 0.0000
   376 C376      11.602093    -3.731047    18.567723 C    1 RES 0.0000
   377 C377      11.602093    17.354953    -2.518277 C    1 RES 0.0000
   378 C378      11.602093    17.354953    18.567723 C    1 RES 0.0000
   379 C379      12.976618    -3.738028    -2.494779 C    1 RES 0.0000
   380 C380      12.976618    -3.738028    18.591221 C    1 RES 0.0000
   381 C381      12.976618    17.347972    -2.494779 C    1 RES 0.0000
   382 C382      12.976618    17.347972    18.591221 C    1 RES 0.0000
   383 C383      13.665207    -2.531350    -2.531157 C    1 RES 0.0000
   384 C384      13.665207    -2.531350    18.554843 C    1 RES 0.0000
   385 C385      13.665207    18.554650    -2.531157 C    1 RES 0.0000
   386 C386      13.665207    18.554650    18.554843 C    1 RES 0.0000
   387 C387      15.137272    -2.529616    -2.531190 C    1 RES 0.0000
   388 C388      15.137272    -2.529616    18.554810 C    1 RES 0.0000
   389 C389      15.137272    18.556384    -2.531190 C    1 RES 0.0000
   390 C390      15.137272    18.556384    18.554810 C    1 RES 0.0000
   391 C391      12.975472    -1.325377    -2.567748 C    1 RES 0.0000
   392 C392      12.975472    -1.325377    18.518252 C    1 RES 0.0000
   393 C393      12.975472    19.760623    -2.567748 C    1 RES 0.0000
   394 C394      12.975472    19.760623    18.518252 C    1 RES 0.0000
   395 C395      11.600942    -1.332654    -2.545338 C    1 RES 0.0000
   396 C396      11.600942    -1.332654    18.540662 C    1 RES 0.0000
   397 C397      11.600942    19.753346    -2.545338 C    1 RES 0.0000
   398 C398      11.600942    19.753346    18.540662 C    1 RES 0.0000
   399 C399       8.698735    -1.341963    -2.529758 C    1 RES 0.0000
   400 C400       8.698735    -1.341963    18.556242 C    1 RES 0.0000
   401 C401       8.698735    19.744037    -2.529758 C    1 RES 0.0000
   402 C402       8.698735    19.744037    18.556242 C    1 RES 0.0000
   403 C403       7.326645    -1.341745    -2.529115 C    1 RES 0.0000
   404 C404       7.326645    -1.341745    18.556885 C    1 RES 0.0000
   405 C405       7.326645    19.744255    -2.529115 C    1 RES 0.0000
   406 C406       7.326645    19.744255    18.556885 C    1 RES 0.0000
   407 C407       4.423159    -3.730402    -2.545409 C    1 RES 0.0000
   408 C408       4.423159    -3.730402    18.540591 C    1 RES 0.0000
   409 C409       4.423159    17.355598    -2.545409 C    1 RES 0.0000
   410 C410       4.423159    17.355598    18.540591 C    1 RES 0.0000
   411 C411      25.509159    -3.730402    -2.545409 C    1 RES 0.0000
   412 C412      25.509159    -3.730402    18.540591 C    1 RES 0.0000
   413 C413      25.509159    17.355598    -2.545409 C    1 RES 0.0000
   414 C414      25.509159    17.355598    18.540591 C    1 RES 0.0000
   415 C415       3.048534    -3.736656    -2.568073 C    1 RES 0.0000
   416 C416       3.048534    -3.736656    18.517927 C    1 RES 0.0000
   417 C417       3.048534    17.349344    -2.568073 C    1 RES 0.0000
   418 C418       3.048534    17.349344    18.517927 C    1 RES 0.0000
   419 C419      24.134534    -3.736656    -2.568073 C    1 RES 0.0000
   420 C420      24.134534    -3.736656    18.517927 C    1 RES 0.0000
   421 C421      24.134534    17.349344    -2.568073 C    1 RES 0.0000
   422 C422      24.134534    17.349344    18.517927 C    1 RES 0.0000
   423 C423      -2.530647     0.879889    -2.532509 C    1 RES 0.0000
   424 C424      -2.530647     0.879889    18.553491 C    1 RES 0.0000
   425 C425      -2.530647    21.965889    -2.532509 C    1 RES 0.0000
   426 C426      -2.530647    21.965889    18.553491 C    1 RES 0.0000
   427 C427      18.555353     0.879889    -2.532509 C    1 RES 0.0000
   428 C428      18.555353     0.879889    18.553491 C    1 RES 0.0000
   429 C429      18.555353    21.965889    -2.532509 C    1 RES 0.0000
   430 C430      18.555353    21.965889    18.553491 C    1 RES 0.0000
   431 C431      -2.530630     2.350878    -2.530907 C    1 RES 0.0000
   432 C432      -2.530630     2.350878    18.555093 C    1 RES 0.0000
   433 C433      -2.530630    23.436878    -2.530907 C    1 RES 0.0000
   434 C434      -2.530630    23.436878    18.555093 C    1 RES 0.0000
   435 C435      18.555370     2.350878    -2.530907 C    1 RES 0.0000
   436 C436      18.555370     2.350878    18.555093 C    1 RES 0.0000
   437 C437      18.555370    23.436878    -2.530907 C    1 RES 0.0000
   438 C438      18.555370    23.436878    18.555093 C    1 RES 0.0000
   439 C439      -3.735083     3.036567    -2.570788 C    1 RES 0.0000
   440 C440      -3.735083     3.036567    18.515212 C    1 RES 0.0000
   441 C441      -3.735083    24.122567    -2.570788 C    1 RES 0.0000
   442 C442      -3.735083    24.122567    18.515212 C    1 RES 0.0000
   443 C443      17.350917     3.036567    -2.570788 C    1 RES 0.0000
   444 C444      17.350917     3.036567    18.515212 C    1 RES 0.0000
   445 C445      17.350917    24.122567    -2.570788 C    1 RES 0.0000
   446 C446      17.350917    24.122567    18.515212 C    1 RES 0.0000
   447 C447      -3.728036     4.412335    -2.545785 C    1 RES 0.0000
   448 C448      -3.728036     4.412335    18.540215 C    1 RES 0.0000
   449 C449      -3.728036    25.498335    -2.545785 C    1 RES 0.0000
   450 C450      -3.728036    25.498335    18.540215 C    1 RES 0.0000
   451 C451      17.357964     4.412335    -2.545785 C    1 RES 0.0000
   452 C452      17.357964     4.412335    18.540215 C    1 RES 0.0000
   453 C453      17.357964    25.498335    -2.545785 C    1 RES 0.0000
   454 C454      17.357964    25.498335    18.540215 C    1 RES 0.0000
   455 C455      -2.530278     5.133129    -2.529576 C    1 RES 0.0000
   456 C456      -2.530278     5.133129    18.556424 C    1 RES 0.0000
   457 C457      18.555722     5.133129    -2.529576 C    1 RES 0.0000
   458 C458      18.555722     5.133129    18.556424 C    1 RES 0.0000
   459 C459      -2.530457     6.597274    -2.529973 C    1 RES 0.0000
   460 C460      -2.530457     6.597274    18.556027 C    1 RES 0.0000
   461 C461      18.555543     6.597274    -2.529973 C    1 RES 0.0000
   462 C462      18.555543     6.597274    18.556027 C    1 RES 0.0000
   463 C463      -1.341466     7.326540    -2.529321 C    1 RES 0.0000
   464 C464      -1.341466     7.326540    18.556679 C    1 RES 0.0000
   465 C465      19.744534     7.326540    -2.529321 C    1 RES 0.0000
   466 C466      19.744534     7.326540    18.556679 C    1 RES 0.0000
   467 C467      -1.341808     8.700061    -2.529957 C    1 RES 0.0000
   468 C468      -1.341808     8.700061    18.556043 C    1 RES 0.0000
   469 C469      19.744192     8.700061    -2.529957 C    1 RES 0.0000
   470 C470      19.744192     8.700061    18.556043 C    1 RES 0.0000
   471 C471      -2.530831     9.429240    -2.531717 C    1 RES 0.0000
   472 C472      -2.530831     9.429240    18.554283 C    1 RES 0.0000
   473 C473      18.555169     9.429240    -2.531717 C    1 RES 0.0000
   474 C474      18.555169     9.429240    18.554283 C    1 RES 0.0000
   475 C475      -2.530877    10.893558    -2.531777 C    1 RES 0.0000
   476 C476      -2.530877    10.893558    18.554223 C    1 RES 0.0000
   477 C477      18.555123    10.893558    -2.531777 C    1 RES 0.0000
   478 C478      18.555123    10.893558    18.554223 C    1 RES 0.0000
   479 C479      -1.332836    11.613702    -2.545249 C    1 RES 0.0000
   480 C480      -1.332836    11.613702    18.540751 C    1 RES 0.0000
   481 C481      19.753164    11.613702    -2.545249 C    1 RES 0.0000
   482 C482      19.753164    11.613702    18.540751 C    1 RES 0.0000
   483 C483      -1.325292    12.989532    -2.569303 C    1 RES 0.0000
   484 C484      -1.325292    12.989532    18.516697 C    1 RES 0.0000
   485 C485      19.760708    12.989532    -2.569303 C    1 RES 0.0000
   486 C486      19.760708    12.989532    18.516697 C    1 RES 0.0000
   487 C487      -2.530153    13.674834    -2.531141 C    1 RES 0.0000
   488 C488      -2.530153    13.674834    18.554859 C    1 RES 0.0000
   489 C489      18.555847    13.674834    -2.531141 C    1 RES 0.0000
   490 C490      18.555847    13.674834    18.554859 C    1 RES 0.0000
   491 C491      -2.530096    15.145596    -2.532907 C    1 RES 0.0000
   492 C492      -2.530096    15.145596    18.553093 C    1 RES 0.0000
   493 C493      18.555904    15.145596    -2.532907 C    1 RES 0.0000
   494 C494      18.555904    15.145596    18.553093 C    1 RES 0.0000
   495 C495      -3.735110    12.989827    -2.492829 C    1 RES 0.0000
   496 C496      -3.735110    12.989827    18.593171 C    1 RES 0.0000
   497 C497      17.350890    12.989827    -2.492829 C    1 RES 0.0000
   498 C498      17.350890    12.989827    18.593171 C    1 RES 0.0000
   499 C499      -3.728681    11.614005    -2.517809 C    1 RES 0.0000
   500 C500      -3.728681    11.614005    18.568191 C    1 RES 0.0000
   501 C501      17.357319    11.614005    -2.517809 C    1 RES 0.0000
   502 C502      17.357319    11.614005    18.568191 C    1 RES 0.0000
   503 C503      -3.719937     8.700190    -2.532790 C    1 RES 0.0000
   504 C504      -3.719937     8.700190    18.553210 C    1 RES 0.0000
   505 C505      17.366063     8.700190    -2.532790 C    1 RES 0.0000
   506 C506      17.366063     8.700190    18.553210 C    1 RES 0.0000
   507 C507      -3.719367     7.326652    -2.531645 C    1 RES 0.0000
   508 C508      -3.719367     7.326652    18.554355 C    1 RES 0.0000
   509 C509      17.366633     7.326652    -2.531645 C    1 RES 0.0000
   510 C510      17.366633     7.326652    18.554355 C    1 RES 0.0000
   511 C511      -1.332741     4.412007    -2.513302 C    1 RES 0.0000
   512 C512      -1.332741     4.412007    18.572698 C    1 RES 0.0000
   513 C513      -1.332741    25.498007    -2.513302 C    1 RES 0.0000
   514 C514      -1.332741    25.498007    18.572698 C    1 RES 0.0000
   515 C515      19.753259     4.412007    -2.513302 C    1 RES 0.0000
   516 C516      19.753259     4.412007    18.572698 C    1 RES 0.0000
   517 C517      19.753259    25.498007    -2.513302 C    1 RES 0.0000
   518 C518      19.753259    25.498007    18.572698 C    1 RES 0.0000
   519 C519      -1.325954     3.036220    -2.489213 C    1 RES 0.0000
   520 C520      -1.325954     3.036220    18.596787 C    1 RES 0.0000
   521 C521      -1.325954    24.122220    -2.489213 C    1 RES 0.0000
   522 C522      -1.325954    24.122220    18.596787 C    1 RES 0.0000
   523 C523      19.760046     3.036220    -2.489213 C    1 RES 0.0000
   524 C524      19.760046     3.036220    18.596787 C    1 RES 0.0000
   525 C525      19.760046    24.122220    -2.489213 C    1 RES 0.0000
   526 C526      19.760046    24.122220    18.596787 C    1 RES 0.0000
   527 C527      -2.528410    -2.528944     0.858871 C    1 RES 0.0000
   528 C528      -2.528410    -2.528944    21.944871 C    1 RES 0.0000
   529 C529      -2.528410    18.557056     0.858871 C    1 RES 0.0000
   530 C530      -2.528410    18.557056    21.944871 C    1 RES 0.0000
   531 C531      18.557590    -2.528944     0.858871 C    1 RES 0.0000
   532 C532      18.557590    -2.528944    21.944871 C    1 RES 0.0000
   533 C533      18.557590    18.557056     0.858871 C    1 RES 0.0000
   534 C534      18.557590    18.557056    21.944871 C    1 RES 0.0000
   535 C535      -2.529059    -2.530399     2.340653 C    1 RES 0.0000
   536 C536      -2.529059    -2.530399    23.426653 C    1 RES 0.0000
   537 C537      -2.529059    18.555601     2.340653 C    1 RES 0.0000
   538 C538      -2.529059    18.555601    23.426653 C    1 RES 0.0000
   539 C539      18.556941    -2.530399     2.340653 C    1 RES 0.0000
   540 C540      18.556941    -2.530399    23.426653 C    1 RES 0.0000
   541 C541      18.556941    18.555601     2.340653 C    1 RES 0.0000
   542 C542      18.556941    18.555601    23.426653 C    1 RES 0.0000
   543 C543      -2.571119    -3.734119     3.035142 C    1 RES 0.0000
   544 C544      -2.571119    -3.734119    24.121142 C    1 RES 0.0000
   545 C545      -2.571119    17.351881     3.035142 C    1 RES 0.0000
   546 C546      -2.571119    17.351881    24.121142 C    1 RES 0.0000
   547 C547      18.514881    -3.734119     3.035142 C    1 RES 0.0000
   548 C548      18.514881    -3.734119    24.121142 C    1 RES 0.0000
   549 C549      18.514881    17.351881     3.035142 C    1 RES 0.0000
   550 C550      18.514881    17.351881    24.121142 C    1 RES 0.0000
   551 C551      -2.546815    -3.730388     4.412415 C    1 RES 0.0000
   552 C552      -2.546815    -3.730388    25.498415 C    1 RES 0.0000
   553 C553      -2.546815    17.355612     4.412415 C    1 RES 0.0000
   554 C554      -2.546815    17.355612    25.498415 C    1 RES 0.0000
   555 C555      18.539185    -3.730388     4.412415 C    1 RES 0.0000
   556 C556      18.539185    -3.730388    25.498415 C    1 RES 0.0000
   557 C557      18.539185    17.355612     4.412415 C    1 RES 0.0000
   558 C558      18.539185    17.355612    25.498415 C    1 RES 0.0000
   559 C559      -2.530205    -2.531179     5.131525 C    1 RES 0.0000
   560 C560      -2.530205    18.554821     5.131525 C    1 RES 0.0000
   561 C561      18.555795    -2.531179     5.131525 C    1 RES 0.0000
   562 C562      18.555795    18.554821     5.131525 C    1 RES 0.0000
   563 C563      -2.530925    -2.531679     6.594532 C    1 RES 0.0000
   564 C564      -2.530925    18.554321     6.594532 C    1 RES 0.0000
   565 C565      18.555075    -2.531679     6.594532 C    1 RES 0.0000
   566 C566      18.555075    18.554321     6.594532 C    1 RES 0.0000
   567 C567      -2.530671    -1.344207     7.325494 C    1 RES 0.0000
   568 C568      -2.530671    19.741793     7.325494 C    1 RES 0.0000
   569 C569      18.555329    -1.344207     7.325494 C    1 RES 0.0000
   570 C570      18.555329    19.741793     7.325494 C    1 RES 0.0000
   571 C571      -2.531481    -1.344435     8.698805 C    1 RES 0.0000
   572 C572      -2.531481    19.741565     8.698805 C    1 RES 0.0000
   573 C573      18.554519    -1.344435     8.698805 C    1 RES 0.0000
   574 C574      18.554519    19.741565     8.698805 C    1 RES 0.0000
   575 C575      -2.533176    -2.532134     9.429439 C    1 RES 0.0000
   576 C576      -2.533176    18.553866     9.429439 C    1 RES 0.0000
   577 C577      18.552824    -2.532134     9.429439 C    1 RES 0.0000
   578 C578      18.552824    18.553866     9.429439 C    1 RES 0.0000
   579 C579      -2.533354    -2.532444    10.892446 C    1 RES 0.0000
   580 C580      -2.533354    18.553556    10.892446 C    1 RES 0.0000
   581 C581      18.552646    -2.532444    10.892446 C    1 RES 0.0000
   582 C582      18.552646    18.553556    10.892446 C    1 RES 0.0000
   583 C583      -2.546847    -1.333252    11.611729 C    1 RES 0.0000
   584 C584      -2.546847    19.752748    11.611729 C    1 RES 0.0000
   585 C585      18.539153    -1.333252    11.611729 C    1 RES 0.0000
   586 C586      18.539153    19.752748    11.611729 C    1 RES 0.0000
   587 C587      -2.570902    -1.329065    12.988929 C    1 RES 0.0000
   588 C588      -2.570902    19.756935    12.988929 C    1 RES 0.0000
   589 C589      18.515098    -1.329065    12.988929 C    1 RES 0.0000
   590 C590      18.515098    19.756935    12.988929 C    1 RES 0.0000
   591 C591      -2.531803    -2.532573    13.683646 C    1 RES 0.0000
   592 C592      -2.531803    18.553427    13.683646 C    1 RES 0.0000
   593 C593      18.554197    -2.532573    13.683646 C    1 RES 0.0000
   594 C594      18.554197    18.553427    13.683646 C    1 RES 0.0000
   595 C595      -2.531194    -2.530493    15.165772 C    1 RES 0.0000
   596 C596      -2.531194    18.555507    15.165772 C    1 RES 0.0000
   597 C597      18.554806    -2.530493    15.165772 C    1 RES 0.0000
   598 C598      18.554806    18.555507    15.165772 C    1 RES 0.0000
   599 C599      -2.493612    -3.736348    12.989356 C    1 RES 0.0000
   600 C600      -2.493612    17.349652    12.989356 C    1 RES 0.0000
   601 C601      18.592388    -3.736348    12.989356 C    1 RES 0.0000
   602 C602      18.592388    17.349652    12.989356 C    1 RES 0.0000
   603 C603      -2.519290    -3.731390    11.612129 C    1 RES 0.0000
   604 C604      -2.519290    17.354610    11.612129 C    1 RES 0.0000
   605 C605      18.566710    -3.731390    11.612129 C    1 RES 0.0000
   606 C606      18.566710    17.354610    11.612129 C    1 RES 0.0000
   607 C607      -2.533970    -3.719433     8.698251 C    1 RES 0.0000
   608 C608      -2.533970    17.366567     8.698251 C    1 RES 0.0000
   609 C609      18.552030    -3.719433     8.698251 C    1 RES 0.0000
   610 C610      18.552030    17.366567     8.698251 C    1 RES 0.0000
   611 C611      -2.532368    -3.719438     7.324991 C    1 RES 0.0000
   612 C612      -2.532368    17.366562     7.324991 C    1 RES 0.0000
   613 C613      18.553632    -3.719438     7.324991 C    1 RES 0.0000
   614 C614      18.553632    17.366562     7.324991 C    1 RES 0.0000
   615 C615      -2.513653    -1.331651     4.413015 C    1 RES 0.0000
   616 C616      -2.513653    -1.331651    25.499015 C    1 RES 0.0000
   617 C617      -2.513653    19.754349     4.413015 C    1 RES 0.0000
   618 C618      -2.513653    19.754349    25.499015 C    1 RES 0.0000
   619 C619      18.572347    -1.331651     4.413015 C    1 RES 0.0000
   620 C620      18.572347    -1.331651    25.499015 C    1 RES 0.0000
   621 C621      18.572347    19.754349     4.413015 C    1 RES 0.0000
   622 C622      18.572347    19.754349    25.499015 C    1 RES 0.0000
   623 C623      -2.488184    -1.326964     3.035811 C    1 RES 0.0000
   624 C624      -2.488184    -1.326964    24.121811 C    1 RES 0.0000
   625 C625      -2.488184    19.759036     3.035811 C    1 RES 0.0000
   626 C626      -2.488184    19.759036    24.121811 C    1 RES 0.0000
   627 C627      18.597816    -1.326964     3.035811 C    1 RES 0.0000
   628 C628      18.597816    -1.326964    24.121811 C    1 RES 0.0000
   629 C629      18.597816    19.759036     3.035811 C    1 RES 0.0000
   630 C630      18.597816    19.759036    24.121811 C    1 RES 0.0000
   631 O631      10.543049    10.540435    10.544675 O    1 RES 0.0000
   632 O632      13.382259     9.601505     9.947363 O    1 RES 0.0000
   633 O633      13.382681    11.484256    11.142425 O    1 RES 0.0000
   634 O634       7.706377    11.482399     9.949508 O    1 RES 0.0000
   635 O635       7.702340     9.597335    11.141163 O    1 RES 0.0000
   636 O636       9.779366    13.383415     9.730103 O    1 RES 0.0000
   637 O637      11.305683    13.384612    11.363183 O    1 RES 0.0000
   638 O638      11.306682     7.701642     9.729699 O    1 RES 0.0000
   639 O639       9.781868     7.699102    11.365196 O    1 RES 0.0000
   640 O640       9.697291     9.812398    13.358291 O    1 RES 0.0000
   641 O641      11.385936    11.271046    13.355720 O    1 RES 0.0000
   642 O642       9.702582    11.273944     7.732641 O    1 RES 0.0000
   643 O643      11.382411     9.806194     7.729781 O    1 RES 0.0000
   644 O644      -2.530336    -2.527828    -2.531877 O    1 RES 0.0000
   645 O645      -2.530336    -2.527828    18.554123 O    1 RES 0.0000
   646 O646      -2.530336    18.558172    -2.531877 O    1 RES 0.0000
   647 O647      -2.530336    18.558172    18.554123 O    1 RES 0.0000
   648 O648      18.555664    -2.527828    -2.531877 O    1 RES 0.0000
   649 O649      18.555664    -2.527828    18.554123 O    1 RES 0.0000
   650 O650      18.555664    18.558172    -2.531877 O    1 RES 0.0000
   651 O651      18.555664    18.558172    18.554123 O    1 RES 0.0000
   652 O652       0.308340    -3.468944    -3.130476 O    1 RES 0.0000
   653 O653       0.308340    -3.468944    17.955524 O    1 RES 0.0000
   654 O654       0.308340    17.617056    -3.130476 O    1 RES 0.0000
   655 O655       0.308340    17.617056    17.955524 O    1 RES 0.0000
   656 O656      21.394340    -3.468944    -3.130476 O    1 RES 0.0000
   657 O657      21.394340    -3.468944    17.955524 O    1 RES 0.0000
   658 O658      21.394340    17.617056    -3.130476 O    1 RES 0.0000
   659 O659      21.394340    17.617056    17.955524 O    1 RES 0.0000
   660 O660       0.308199    -1.585571    -1.936059 O    1 RES 0.0000
   661 O661       0.308199    -1.585571    19.149941 O    1 RES 0.0000
   662 O662       0.308199    19.500429    -1.936059 O    1 RES 0.0000
   663 O663       0.308199    19.500429    19.149941 O    1 RES 0.0000
   664 O664      21.394199    -1.585571    -1.936059 O    1 RES 0.0000
   665 O665      21.394199    -1.585571    19.149941 O    1 RES 0.0000
   666 O666      21.394199    19.500429    -1.936059 O    1 RES 0.0000
   667 O667      21.394199    19.500429    19.149941 O    1 RES 0.0000
   668 O668      15.714766    -1.587608    -3.128928 O    1 RES 0.0000
   669 O669      15.714766    -1.587608    17.957072 O    1 RES 0.0000
   670 O670      15.714766    19.498392    -3.128928 O    1 RES 0.0000
   671 O671      15.714766    19.498392    17.957072 O    1 RES 0.0000
   672 O672      15.717520    -3.469734    -1.932794 O    1 RES 0.0000
   673 O673      15.717520    -3.469734    19.153206 O    1 RES 0.0000
   674 O674      15.717520    17.616266    -1.932794 O    1 RES 0.0000
   675 O675      15.717520    17.616266    19.153206 O    1 RES 0.0000
   676 O676      -3.292131     0.312753    -3.350958 O    1 RES 0.0000
   677 O677      -3.292131     0.312753    17.735042 O    1 RES 0.0000
   678 O678      -3.292131    21.398753    -3.350958 O    1 RES 0.0000
   679 O679      -3.292131    21.398753    17.735042 O    1 RES 0.0000
   680 O680      17.793869     0.312753    -3.350958 O    1 RES 0.0000
   681 O681      17.793869     0.312753    17.735042 O    1 RES 0.0000
   682 O682      17.793869    21.398753    -3.350958 O    1 RES 0.0000
   683 O683      17.793869    21.398753    17.735042 O    1 RES 0.0000
   684 O684      -1.766925     0.311897    -1.715793 O    1 RES 0.0000
   685 O685      -1.766925     0.311897    19.370207 O    1 RES 0.0000
   686 O686      -1.766925    21.397897    -1.715793 O    1 RES 0.0000
   687 O687      -1.766925    21.397897    19.370207 O    1 RES 0.0000
   688 O688      19.319075     0.311897    -1.715793 O    1 RES 0.0000
   689 O689      19.319075     0.311897    19.370207 O    1 RES 0.0000
   690 O690      19.319075    21.397897    -1.715793 O    1 RES 0.0000
   691 O691      19.319075    21.397897    19.370207 O    1 RES 0.0000
   692 O692      -1.766046    15.712940    -3.348979 O    1 RES 0.0000
   693 O693      -1.766046    15.712940    17.737021 O    1 RES 0.0000
   694 O694      19.319954    15.712940    -3.348979 O    1 RES 0.0000
   695 O695      19.319954    15.712940    17.737021 O    1 RES 0.0000
   696 O696      -3.294845    15.715434    -1.718217 O    1 RES 0.0000
   697 O697      -3.294845    15.715434    19.367783 O    1 RES 0.0000
   698 O698      17.791155    15.715434    -1.718217 O    1 RES 0.0000
   699 O699      17.791155    15.715434    19.367783 O    1 RES 0.0000
   700 O700      -3.367726    -3.262161     0.279860 O    1 RES 0.0000
   701 O701      -3.367726    -3.262161    21.365860 O    1 RES 0.0000
   702 O702      -3.367726    17.823839     0.279860 O    1 RES 0.0000
   703 O703      -3.367726    17.823839    21.365860 O    1 RES 0.0000
   704 O704      17.718274    -3.262161     0.279860 O    1 RES 0.0000
   705 O705      17.718274    -3.262161    21.365860 O    1 RES 0.0000
   706 O706      17.718274    17.823839     0.279860 O    1 RES 0.0000
   707 O707      17.718274    17.823839    21.365860 O    1 RES 0.0000
   708 O708      -1.688950    -1.793074     0.282827 O    1 RES 0.0000
   709 O709      -1.688950    -1.793074    21.368827 O    1 RES 0.0000
   710 O710      -1.688950    19.292926     0.282827 O    1 RES 0.0000
   711 O711      -1.688950    19.292926    21.368827 O    1 RES 0.0000
   712 O712      19.397050    -1.793074     0.282827 O    1 RES 0.0000
   713 O713      19.397050    -1.793074    21.368827 O    1 RES 0.0000
   714 O714      19.397050    19.292926     0.282827 O    1 RES 0.0000
   715 O715      19.397050    19.292926    21.368827 O    1 RES 0.0000
   716 O716      -3.373044    -1.797005    15.740298 O    1 RES 0.0000
   717 O717      -3.373044    19.288995    15.740298 O    1 RES 0.0000
   718 O718      17.712956    -1.797005    15.740298 O    1 RES 0.0000
   719 O719      17.712956    19.288995    15.740298 O    1 RES 0.0000
   720 O720      -1.687618    -3.259333    15.742791 O    1 RES 0.0000
   721 O721      -1.687618    17.826667    15.742791 O    1 RES 0.0000
   722 O722      19.398382    -3.259333    15.742791 O    1 RES 0.0000
   723 O723      19.398382    17.826667    15.742791 O    1 RES 0.0000
@<TRIPOS>BOND
     1      1    631 1
     2      1    632 1
     3      1    638 1
     4      1    643 1
     5      2    631 1
     6      2    634 1
     7      2    636 1
     8      2    642 1
     9      3    631 1
    10      3    635 1
    11      3    639 1
    12      3    640 1
    13      4    631 1
    14      4    633 1
    15      4    637 1
    16      4    641 1
    17      5    644 1
    18      5    652 1
    19      6    645 1
    20      6    653 1
    21      6    720 1
    22      7    646 1
    23      7    654 1
    24      7    692 1
    25      8    647 1
    26      8    655 1
    27      8    693 1
    28      8    721 1
    29      9    648 1
    30      9    656 1
    31     10    649 1
    32     10    657 1
    33     10    722 1
    34     11    650 1
    35     11    658 1
    36     11    694 1
    37     12    651 1
    38     12    659 1
    39     12    695 1
    40     12    723 1
    41     13    644 1
    42     13    676 1
    43     14    645 1
    44     14    677 1
    45     14    716 1
    46     15    646 1
    47     15    678 1
    48     16    647 1
    49     16    679 1
    50     16    717 1
    51     17    648 1
    52     17    668 1
    53     17    680 1
    54     18    649 1
    55     18    669 1
    56     18    681 1
    57     18    718 1
    58     19    650 1
    59     19    670 1
    60     19    682 1
    61     20    651 1
    62     20    671 1
    63     20    683 1
    64     20    719 1
    65     21    644 1
    66     21    700 1
    67     22    645 1
    68     22    701 1
    69     23    646 1
    70     23    696 1
    71     23    702 1
    72     24    647 1
    73     24    697 1
    74     24    703 1
    75     25    648 1
    76     25    672 1
    77     25    704 1
    78     26    649 1
    79     26    673 1
    80     26    705 1
    81     27    650 1
    82     27    674 1
    83     27    698 1
    84     27    706 1
    85     28    651 1
    86     28    675 1
    87     28    699 1
    88     28    707 1
    89     29    644 1
    90     29    660 1
    91     29    684 1
    92     29    708 1
    93     30    645 1
    94     30    661 1
    95     30    685 1
    96     30    709 1
    97     31    646 1
    98     31    662 1
    99     31    686 1
   100     31    710 1
   101     32    647 1
   102     32    663 1
   103     32    687 1
   104     32    711 1
   105     33    648 1
   106     33    664 1
   107     33    688 1
   108     33    712 1
   109     34    649 1
   110     34    665 1
   111     34    689 1
   112     34    713 1
   113     35    650 1
   114     35    666 1
   115     35    690 1
   116     35    714 1
   117     36    651 1
   118     36    667 1
   119     36    691 1
   120     36    715 1
   121     37    225 1
   122     38    226 1
   123     39    227 1
   124     40    232 1
   125     41    233 1
   126     42    234 1
   127     43    235 1
   128     44    240 1
   129     45    241 1
   130     46    242 1
   131     47    245 1
   132     48    246 1
   133     49    247 1
   134     50    248 1
   135     51    249 1
   136     52    250 1
   137     53    251 1
   138     54    252 1
   139     55    253 1
   140     56    254 1
   141     57    257 1
   142     58    258 1
   143     59    259 1
   144     60    264 1
   145     61    265 1
   146     62    266 1
   147     63    267 1
   148     64    272 1
   149     65    273 1
   150     66    274 1
   151     67    277 1
   152     68    278 1
   153     69    279 1
   154     70    280 1
   155     71    281 1
   156     72    282 1
   157     73    283 1
   158     74    284 1
   159     75    285 1
   160     76    286 1
   161     77    289 1
   162     78    290 1
   163     79    291 1
   164     80    296 1
   165     81    297 1
   166     82    298 1
   167     83    299 1
   168     84    304 1
   169     85    305 1
   170     86    306 1
   171     87    309 1
   172     88    310 1
   173     89    311 1
   174     90    312 1
   175     91    313 1
   176     92    314 1
   177     93    315 1
   178     94    316 1
   179     95    317 1
   180     96    318 1
   181     97    335 1
   182     98    336 1
   183     99    337 1
   184    100    338 1
   185    101    339 1
   186    102    340 1
   187    103    341 1
   188    104    342 1
   189    105    343 1
   190    106    344 1
   191    107    345 1
   192    108    346 1
   193    109    361 1
   194    110    362 1
   195    111    365 1
   196    112    366 1
   197    113    377 1
   198    114    378 1
   199    115    381 1
   200    116    382 1
   201    117    391 1
   202    118    392 1
   203    119    393 1
   204    120    394 1
   205    121    395 1
   206    122    396 1
   207    123    397 1
   208    124    398 1
   209    125    399 1
   210    126    400 1
   211    127    401 1
   212    128    402 1
   213    129    403 1
   214    130    404 1
   215    131    405 1
   216    132    406 1
   217    133    409 1
   218    134    410 1
   219    135    417 1
   220    136    418 1
   221    137    421 1
   222    138    422 1
   223    139    443 1
   224    140    444 1
   225    141    445 1
   226    142    446 1
   227    143    451 1
   228    144    452 1
   229    145    463 1
   230    146    464 1
   231    147    465 1
   232    148    466 1
   233    149    467 1
   234    150    468 1
   235    151    469 1
   236    152    470 1
   237    153    479 1
   238    154    480 1
   239    155    481 1
   240    156    482 1
   241    157    483 1
   242    158    484 1
   243    159    485 1
   244    160    486 1
   245    161    497 1
   246    162    498 1
   247    163    501 1
   248    164    502 1
   249    165    505 1
   250    166    506 1
   251    167    509 1
   252    168    510 1
   253    169    511 1
   254    170    512 1
   255    171    515 1
   256    172    516 1
   257    173    519 1
   258    174    520 1
   259    175    521 1
   260    176    522 1
   261    177    523 1
   262    178    524 1
   263    179    525 1
   264    180    526 1
   265    181    545 1
   266    182    546 1
   267    183    549 1
   268    184    550 1
   269    185    553 1
   270    186    557 1
   271    187    567 1
   272    188    568 1
   273    189    569 1
   274    190    570 1
   275    191    571 1
   276    192    572 1
   277    193    573 1
   278    194    574 1
   279    195    583 1
   280    196    584 1
   281    197    585 1
   282    198    586 1
   283    199    587 1
   284    200    588 1
   285    201    589 1
   286    202    590 1
   287    203    600 1
   288    204    602 1
   289    205    604 1
   290    206    606 1
   291    207    608 1
   292    208    610 1
   293    209    612 1
   294    210    614 1
   295    211    615 1
   296    212    617 1
   297    213    619 1
   298    214    621 1
   299    215    623 1
   300    216    624 1
   301    217    625 1
   302    218    626 1
   303    219    627 1
   304    220    628 1
   305    221    629 1
   306    222    630 1
   307    223    224 1
   308    223    632 1
   309    223    633 1
   310    224    225 1
   311    224    254 1
   312    225    227 1
   313    226    228 1
   314    227    229 1
   315    228    230 1
   316    228    252 1
   317    229    231 1
   318    229    253 1
   319    230    232 1
   320    230    250 1
   321    231    233 1
   322    231    251 1
   323    232    234 1
   324    233    235 1
   325    234    236 1
   326    235    237 1
   327    236    238 1
   328    236    248 1
   329    237    239 1
   330    237    249 1
   331    238    240 1
   332    238    246 1
   333    239    241 1
   334    239    247 1
   335    240    242 1
   336    242    243 1
   337    243    244 1
   338    243    245 1
   339    244    634 1
   340    244    635 1
   341    245    246 1
   342    248    250 1
   343    249    251 1
   344    253    254 1
   345    255    256 1
   346    255    636 1
   347    255    637 1
   348    256    257 1
   349    256    286 1
   350    257    259 1
   351    258    260 1
   352    259    261 1
   353    260    262 1
   354    260    284 1
   355    261    263 1
   356    261    285 1
   357    262    264 1
   358    262    282 1
   359    263    265 1
   360    263    283 1
   361    264    266 1
   362    265    267 1
   363    266    268 1
   364    267    269 1
   365    268    270 1
   366    268    280 1
   367    269    271 1
   368    269    281 1
   369    270    272 1
   370    270    278 1
   371    271    273 1
   372    271    279 1
   373    272    274 1
   374    274    275 1
   375    275    276 1
   376    275    277 1
   377    276    638 1
   378    276    639 1
   379    277    278 1
   380    280    282 1
   381    281    283 1
   382    285    286 1
   383    287    288 1
   384    287    640 1
   385    287    641 1
   386    288    289 1
   387    288    318 1
   388    289    291 1
   389    290    292 1
   390    291    293 1
   391    292    294 1
   392    292    316 1
   393    293    295 1
   394    293    317 1
   395    294    296 1
   396    294    314 1
   397    295    297 1
   398    295    315 1
   399    296    298 1
   400    297    299 1
   401    298    300 1
   402    299    301 1
   403    300    302 1
   404    300    312 1
   405    301    303 1
   406    301    313 1
   407    302    304 1
   408    302    310 1
   409    303    305 1
   410    303    311 1
   411    304    306 1
   412    306    307 1
   413    307    308 1
   414    307    309 1
   415    308    642 1
   416    308    643 1
   417    309    310 1
   418    312    314 1
   419    313    315 1
   420    317    318 1
   421    319    327 1
   422    319    652 1
   423    319    660 1
   424    320    328 1
   425    320    653 1
   426    320    661 1
   427    321    329 1
   428    321    654 1
   429    321    662 1
   430    322    330 1
   431    322    655 1
   432    322    663 1
   433    323    331 1
   434    323    656 1
   435    323    664 1
   436    324    332 1
   437    324    657 1
   438    324    665 1
   439    325    333 1
   440    325    658 1
   441    325    666 1
   442    326    334 1
   443    326    659 1
   444    326    667 1
   445    327    335 1
   446    327    415 1
   447    328    336 1
   448    328    416 1
   449    329    337 1
   450    329    417 1
   451    330    338 1
   452    330    418 1
   453    331    339 1
   454    331    419 1
   455    332    340 1
   456    332    420 1
   457    333    341 1
   458    333    421 1
   459    334    342 1
   460    334    422 1
   461    335    343 1
   462    336    344 1
   463    337    345 1
   464    338    346 1
   465    339    347 1
   466    340    348 1
   467    341    349 1
   468    342    350 1
   469    343    351 1
   470    344    352 1
   471    345    353 1
   472    346    354 1
   473    351    355 1
   474    351    407 1
   475    352    356 1
   476    352    408 1
   477    353    357 1
   478    353    409 1
   479    354    358 1
   480    354    410 1
   481    355    359 1
   482    355    403 1
   483    356    360 1
   484    356    404 1
   485    357    361 1
   486    357    405 1
   487    358    362 1
   488    358    406 1
   489    359    363 1
   490    360    364 1
   491    361    365 1
   492    362    366 1
   493    363    367 1
   494    364    368 1
   495    365    369 1
   496    366    370 1
   497    367    371 1
   498    367    399 1
   499    368    372 1
   500    368    400 1
   501    369    373 1
   502    369    401 1
   503    370    374 1
   504    370    402 1
   505    371    375 1
   506    371    395 1
   507    372    376 1
   508    372    396 1
   509    373    377 1
   510    373    397 1
   511    374    378 1
   512    374    398 1
   513    375    379 1
   514    376    380 1
   515    377    381 1
   516    378    382 1
   517    379    383 1
   518    380    384 1
   519    381    385 1
   520    382    386 1
   521    383    387 1
   522    383    391 1
   523    384    388 1
   524    384    392 1
   525    385    389 1
   526    385    393 1
   527    386    390 1
   528    386    394 1
   529    387    668 1
   530    387    672 1
   531    388    669 1
   532    388    673 1
   533    389    670 1
   534    389    674 1
   535    390    671 1
   536    390    675 1
   537    391    395 1
   538    392    396 1
   539    393    397 1
   540    394    398 1
   541    399    403 1
   542    400    404 1
   543    401    405 1
   544    402    406 1
   545    407    415 1
   546    408    416 1
   547    409    417 1
   548    410    418 1
   549    411    419 1
   550    412    420 1
   551    413    421 1
   552    414    422 1
   553    423    431 1
   554    423    676 1
   555    423    684 1
   556    424    432 1
   557    424    677 1
   558    424    685 1
   559    425    433 1
   560    425    678 1
   561    425    686 1
   562    426    434 1
   563    426    679 1
   564    426    687 1
   565    427    435 1
   566    427    680 1
   567    427    688 1
   568    428    436 1
   569    428    681 1
   570    428    689 1
   571    429    437 1
   572    429    682 1
   573    429    690 1
   574    430    438 1
   575    430    683 1
   576    430    691 1
   577    431    439 1
   578    431    519 1
   579    432    440 1
   580    432    520 1
   581    433    441 1
   582    433    521 1
   583    434    442 1
   584    434    522 1
   585    435    443 1
   586    435    523 1
   587    436    444 1
   588    436    524 1
   589    437    445 1
   590    437    525 1
   591    438    446 1
   592    438    526 1
   593    439    447 1
   594    440    448 1
   595    441    449 1
   596    442    450 1
   597    443    451 1
   598    444    452 1
   599    445    453 1
   600    446    454 1
   601    447    455 1
   602    448    456 1
   603    451    457 1
   604    452    458 1
   605    455    459 1
   606    455    511 1
   607    456    460 1
   608    456    512 1
   609    457    461 1
   610    457    515 1
   611    458    462 1
   612    458    516 1
   613    459    463 1
   614    459    507 1
   615    460    464 1
   616    460    508 1
   617    461    465 1
   618    461    509 1
   619    462    466 1
   620    462    510 1
   621    463    467 1
   622    464    468 1
   623    465    469 1
   624    466    470 1
   625    467    471 1
   626    468    472 1
   627    469    473 1
   628    470    474 1
   629    471    475 1
   630    471    503 1
   631    472    476 1
   632    472    504 1
   633    473    477 1
   634    473    505 1
   635    474    478 1
   636    474    506 1
   637    475    479 1
   638    475    499 1
   639    476    480 1
   640    476    500 1
   641    477    481 1
   642    477    501 1
   643    478    482 1
   644    478    502 1
   645    479    483 1
   646    480    484 1
   647    481    485 1
   648    482    486 1
   649    483    487 1
   650    484    488 1
   651    485    489 1
   652    486    490 1
   653    487    491 1
   654    487    495 1
   655    488    492 1
   656    488    496 1
   657    489    493 1
   658    489    497 1
   659    490    494 1
   660    490    498 1
   661    491    692 1
   662    491    696 1
   663    492    693 1
   664    492    697 1
   665    493    694 1
   666    493    698 1
   667    494    695 1
   668    494    699 1
   669    495    499 1
   670    496    500 1
   671    497    501 1
   672    498    502 1
   673    503    507 1
   674    504    508 1
   675    505    509 1
   676    506    510 1
   677    511    519 1
   678    512    520 1
   679    513    521 1
   680    514    522 1
   681    515    523 1
   682    516    524 1
   683    517    525 1
   684    518    526 1
   685    527    535 1
   686    527    700 1
   687    527    708 1
   688    528    536 1
   689    528    701 1
   690    528    709 1
   691    529    537 1
   692    529    702 1
   693    529    710 1
   694    530    538 1
   695    530    703 1
   696    530    711 1
   697    531    539 1
   698    531    704 1
   699    531    712 1
   700    532    540 1
   701    532    705 1
   702    532    713 1
   703    533    541 1
   704    533    706 1
   705    533    714 1
   706    534    542 1
   707    534    707 1
   708    534    715 1
   709    535    543 1
   710    535    623 1
   711    536    544 1
   712    536    624 1
   713    537    545 1
   714    537    625 1
   715    538    546 1
   716    538    626 1
   717    539    547 1
   718    539    627 1
   719    540    548 1
   720    540    628 1
   721    541    549 1
   722    541    629 1
   723    542    550 1
   724    542    630 1
   725    543    551 1
   726    544    552 1
   727    545    553 1
   728    546    554 1
   729    547    555 1
   730    548    556 1
   731    549    557 1
   732    550    558 1
   733    551    559 1
   734    553    560 1
   735    555    561 1
   736    557    562 1
   737    559    563 1
   738    559    615 1
   739    560    564 1
   740    560    617 1
   741    561    565 1
   742    561    619 1
   743    562    566 1
   744    562    621 1
   745    563    567 1
   746    563    611 1
   747    564    568 1
   748    564    612 1
   749    565    569 1
   750    565    613 1
   751    566    570 1
   752    566    614 1
   753    567    571 1
   754    568    572 1
   755    569    573 1
   756    570    574 1
   757    571    575 1
   758    572    576 1
   759    573    577 1
   760    574    578 1
   761    575    579 1
   762    575    607 1
   763    576    580 1
   764    576    608 1
   765    577    581 1
   766    577    609 1
   767    578    582 1
   768    578    610 1
   769    579    583 1
   770    579    603 1
   771    580    584 1
   772    580    604 1
   773    581    585 1
   774    581    605 1
   775    582    586 1
   776    582    606 1
   777    583    587 1
   778    584    588 1
   779    585    589 1
   780    586    590 1
   781    587    591 1
   782    588    592 1
   783    589    593 1
   784    590    594 1
   785    591    595 1
   786    591    599 1
   787    592    596 1
   788    592    600 1
   789    593    597 1
   790    593    601 1
   791    594    598 1
   792    594    602 1
   793    595    716 1
   794    595    720 1
   795    596    717 1
   796    596    721 1
   797    597    718 1
   798    597    722 1
   799    598    719 1
   800    598    723 1
   801    599    603 1
   802    600    604 1
   803    601    605 1
   804    602    606 1
   805    607    611 1
   806    608    612 1
   807    609    613 1
   808    610    614 1
   809    615    623 1
   810    616    624 1
   811    617    625 1
   812    618    626 1
   813    619    627 1
   814    620    628 1
   815    621    629 1
   816    622    630 1
