@<TRIPOS>MOLECULE
tpdc_zn4o_pcu_ip2_off400
741 834 0 0 0
SMALL
NO_CHARGES

@<TRIPOS>ATOM
     1 Zn1        11.602564     9.489180     9.528808 Zn   1 RES 0.0000
     2 Zn2         9.484649    11.597426     9.530472 Zn   1 RES 0.0000
     3 Zn3         9.482218     9.487740    11.555667 Zn   1 RES 0.0000
     4 Zn4        11.602216    11.597734    11.554082 Zn   1 RES 0.0000
     5 Zn5        -1.049967    -3.164160    -3.119949 Zn   1 RES 0.0000
     6 Zn6        -1.049967    -3.164160    17.966051 Zn   1 RES 0.0000
     7 Zn7        -1.049967    17.921840    -3.119949 Zn   1 RES 0.0000
     8 Zn8        -1.049967    17.921840    17.966051 Zn   1 RES 0.0000
     9 Zn9        20.036033    -3.164160    -3.119949 Zn   1 RES 0.0000
    10 Zn10       20.036033    -3.164160    17.966051 Zn   1 RES 0.0000
    11 Zn11       20.036033    17.921840    -3.119949 Zn   1 RES 0.0000
    12 Zn12       20.036033    17.921840    17.966051 Zn   1 RES 0.0000
    13 Zn13       -3.169479    -1.054297    -3.121639 Zn   1 RES 0.0000
    14 Zn14       -3.169479    -1.054297    17.964361 Zn   1 RES 0.0000
    15 Zn15       -3.169479    20.031703    -3.121639 Zn   1 RES 0.0000
    16 Zn16       -3.169479    20.031703    17.964361 Zn   1 RES 0.0000
    17 Zn17       17.916521    -1.054297    -3.121639 Zn   1 RES 0.0000
    18 Zn18       17.916521    -1.054297    17.964361 Zn   1 RES 0.0000
    19 Zn19       17.916521    20.031703    -3.121639 Zn   1 RES 0.0000
    20 Zn20       17.916521    20.031703    17.964361 Zn   1 RES 0.0000
    21 Zn21       -3.166989    -3.162974    -1.096793 Zn   1 RES 0.0000
    22 Zn22       -3.166989    -3.162974    19.989207 Zn   1 RES 0.0000
    23 Zn23       -3.166989    17.923026    -1.096793 Zn   1 RES 0.0000
    24 Zn24       -3.166989    17.923026    19.989207 Zn   1 RES 0.0000
    25 Zn25       17.919011    -3.162974    -1.096793 Zn   1 RES 0.0000
    26 Zn26       17.919011    -3.162974    19.989207 Zn   1 RES 0.0000
    27 Zn27       17.919011    17.923026    -1.096793 Zn   1 RES 0.0000
    28 Zn28       17.919011    17.923026    19.989207 Zn   1 RES 0.0000
    29 Zn29       -1.049051    -1.054273    -1.094656 Zn   1 RES 0.0000
    30 Zn30       -1.049051    -1.054273    19.991344 Zn   1 RES 0.0000
    31 Zn31       -1.049051    20.031727    -1.094656 Zn   1 RES 0.0000
    32 Zn32       -1.049051    20.031727    19.991344 Zn   1 RES 0.0000
    33 Zn33       20.036949    -1.054273    -1.094656 Zn   1 RES 0.0000
    34 Zn34       20.036949    -1.054273    19.991344 Zn   1 RES 0.0000
    35 Zn35       20.036949    20.031727    -1.094656 Zn   1 RES 0.0000
    36 Zn36       20.036949    20.031727    19.991344 Zn   1 RES 0.0000
    37 H37       15.568187    12.677152    10.613033 H    1 RES 0.0000
    38 H38       -3.069466    12.685838    10.559773 H    1 RES 0.0000
    39 H39       18.016534    12.685838    10.559773 H    1 RES 0.0000
    40 H40       -1.187783     8.402821    10.542545 H    1 RES 0.0000
    41 H41       19.898217     8.402821    10.542545 H    1 RES 0.0000
    42 H42        1.187232     8.402550    10.540174 H    1 RES 0.0000
    43 H43       22.273232     8.402550    10.540174 H    1 RES 0.0000
    44 H44        3.068358     8.401713    10.554384 H    1 RES 0.0000
    45 H45       24.154358     8.401713    10.554384 H    1 RES 0.0000
    46 H46        5.516648     8.409235    10.610853 H    1 RES 0.0000
    47 H47        5.518864    12.674714    10.473618 H    1 RES 0.0000
    48 H48        3.070656    12.685342    10.530671 H    1 RES 0.0000
    49 H49       24.156656    12.685342    10.530671 H    1 RES 0.0000
    50 H50        1.188332    12.686136    10.545979 H    1 RES 0.0000
    51 H51       22.274332    12.686136    10.545979 H    1 RES 0.0000
    52 H52       -1.187133    12.686043    10.545979 H    1 RES 0.0000
    53 H53       19.898867    12.686043    10.545979 H    1 RES 0.0000
    54 H54       -3.069640     8.402627    10.528763 H    1 RES 0.0000
    55 H55       18.016360     8.402627    10.528763 H    1 RES 0.0000
    56 H56       15.568723     8.411559    10.470626 H    1 RES 0.0000
    57 H57        8.418090    15.543684    10.470155 H    1 RES 0.0000
    58 H58        8.402793    -3.084463    10.527157 H    1 RES 0.0000
    59 H59        8.402793    18.001537    10.527157 H    1 RES 0.0000
    60 H60       12.684521    -1.187682    10.546208 H    1 RES 0.0000
    61 H61       12.684521    19.898318    10.546208 H    1 RES 0.0000
    62 H62       12.683963     1.187029    10.546391 H    1 RES 0.0000
    63 H63       12.683963    22.273029    10.546391 H    1 RES 0.0000
    64 H64       12.682363     3.082231    10.531164 H    1 RES 0.0000
    65 H65       12.682363    24.168231    10.531164 H    1 RES 0.0000
    66 H66       12.666947     5.542019    10.473621 H    1 RES 0.0000
    67 H67        8.417355     5.541951    10.610996 H    1 RES 0.0000
    68 H68        8.402416     3.082467    10.554183 H    1 RES 0.0000
    69 H69        8.402416    24.168467    10.554183 H    1 RES 0.0000
    70 H70        8.401946     1.187308    10.539777 H    1 RES 0.0000
    71 H71        8.401946    22.273308    10.539777 H    1 RES 0.0000
    72 H72        8.402259    -1.188581    10.541978 H    1 RES 0.0000
    73 H73        8.402259    19.897419    10.541978 H    1 RES 0.0000
    74 H74       12.683966    -3.083723    10.559937 H    1 RES 0.0000
    75 H75       12.683966    18.002277    10.559937 H    1 RES 0.0000
    76 H76       12.669084    15.544963    10.615057 H    1 RES 0.0000
    77 H77       10.470233     8.408051    15.565642 H    1 RES 0.0000
    78 H78       10.530597     8.396259    -3.085678 H    1 RES 0.0000
    79 H79       10.530597     8.396259    18.000322 H    1 RES 0.0000
    80 H80       10.547119    12.683844    -1.186451 H    1 RES 0.0000
    81 H81       10.547119    12.683844    19.899549 H    1 RES 0.0000
    82 H82       10.546846    12.684019     1.187840 H    1 RES 0.0000
    83 H83       10.546846    12.684019    22.273840 H    1 RES 0.0000
    84 H84       10.532394    12.691946     3.086988 H    1 RES 0.0000
    85 H85       10.532394    12.691946    24.172988 H    1 RES 0.0000
    86 H86       10.471179    12.679217     5.520980 H    1 RES 0.0000
    87 H87       10.613569     8.406666     5.520216 H    1 RES 0.0000
    88 H88       10.555438     8.395333     3.085885 H    1 RES 0.0000
    89 H89       10.555438     8.395333    24.171885 H    1 RES 0.0000
    90 H90       10.541709     8.404510     1.187179 H    1 RES 0.0000
    91 H91       10.541709     8.404510    22.273179 H    1 RES 0.0000
    92 H92       10.543351     8.404627    -1.186883 H    1 RES 0.0000
    93 H93       10.543351     8.404627    19.899117 H    1 RES 0.0000
    94 H94       10.560064    12.691802    -3.085655 H    1 RES 0.0000
    95 H95       10.560064    12.691802    18.000345 H    1 RES 0.0000
    96 H96       10.615546    12.680209    15.565003 H    1 RES 0.0000
    97 H97        2.916976     0.023933    -2.036358 H    1 RES 0.0000
    98 H98        2.916976     0.023933    19.049642 H    1 RES 0.0000
    99 H99        2.916976    21.109933    -2.036358 H    1 RES 0.0000
   100 H100       2.916976    21.109933    19.049642 H    1 RES 0.0000
   101 H101      24.002976     0.023933    -2.036358 H    1 RES 0.0000
   102 H102      24.002976     0.023933    19.049642 H    1 RES 0.0000
   103 H103      24.002976    21.109933    -2.036358 H    1 RES 0.0000
   104 H104      24.002976    21.109933    19.049642 H    1 RES 0.0000
   105 H105       5.365334     0.032397    -2.093237 H    1 RES 0.0000
   106 H106       5.365334     0.032397    18.992763 H    1 RES 0.0000
   107 H107       5.365334    21.118397    -2.093237 H    1 RES 0.0000
   108 H108       5.365334    21.118397    18.992763 H    1 RES 0.0000
   109 H109       7.246326    -4.251710    -2.108651 H    1 RES 0.0000
   110 H110       7.246326    -4.251710    18.977349 H    1 RES 0.0000
   111 H111       7.246326    16.834290    -2.108651 H    1 RES 0.0000
   112 H112       7.246326    16.834290    18.977349 H    1 RES 0.0000
   113 H113       9.622188    -4.251353    -2.112065 H    1 RES 0.0000
   114 H114       9.622188    -4.251353    18.973935 H    1 RES 0.0000
   115 H115       9.622188    16.834647    -2.112065 H    1 RES 0.0000
   116 H116       9.622188    16.834647    18.973935 H    1 RES 0.0000
   117 H117      11.505051    -4.251356    -2.097800 H    1 RES 0.0000
   118 H118      11.505051    -4.251356    18.988200 H    1 RES 0.0000
   119 H119      11.505051    16.834644    -2.097800 H    1 RES 0.0000
   120 H120      11.505051    16.834644    18.988200 H    1 RES 0.0000
   121 H121      13.953131    -4.241724    -2.041413 H    1 RES 0.0000
   122 H122      13.953131    -4.241724    19.044587 H    1 RES 0.0000
   123 H123      13.953131    16.844276    -2.041413 H    1 RES 0.0000
   124 H124      13.953131    16.844276    19.044587 H    1 RES 0.0000
   125 H125      13.950813     0.024181    -2.176826 H    1 RES 0.0000
   126 H126      13.950813     0.024181    18.909174 H    1 RES 0.0000
   127 H127      13.950813    21.110181    -2.176826 H    1 RES 0.0000
   128 H128      13.950813    21.110181    18.909174 H    1 RES 0.0000
   129 H129      11.503206     0.032029    -2.120826 H    1 RES 0.0000
   130 H130      11.503206     0.032029    18.965174 H    1 RES 0.0000
   131 H131      11.503206    21.118029    -2.120826 H    1 RES 0.0000
   132 H132      11.503206    21.118029    18.965174 H    1 RES 0.0000
   133 H133       9.621863     0.031747    -2.107742 H    1 RES 0.0000
   134 H134       9.621863     0.031747    18.978258 H    1 RES 0.0000
   135 H135       9.621863    21.117747    -2.107742 H    1 RES 0.0000
   136 H136       9.621863    21.117747    18.978258 H    1 RES 0.0000
   137 H137       7.246955     0.031823    -2.107430 H    1 RES 0.0000
   138 H138       7.246955     0.031823    18.978570 H    1 RES 0.0000
   139 H139       7.246955    21.117823    -2.107430 H    1 RES 0.0000
   140 H140       7.246955    21.117823    18.978570 H    1 RES 0.0000
   141 H141       5.364320    -4.251150    -2.123113 H    1 RES 0.0000
   142 H142       5.364320    -4.251150    18.962887 H    1 RES 0.0000
   143 H143       5.364320    16.834850    -2.123113 H    1 RES 0.0000
   144 H144       5.364320    16.834850    18.962887 H    1 RES 0.0000
   145 H145       2.916177    -4.241399    -2.178384 H    1 RES 0.0000
   146 H146       2.916177    -4.241399    18.907616 H    1 RES 0.0000
   147 H147       2.916177    16.844601    -2.178384 H    1 RES 0.0000
   148 H148       2.916177    16.844601    18.907616 H    1 RES 0.0000
   149 H149      24.002177    -4.241399    -2.178384 H    1 RES 0.0000
   150 H150      24.002177    -4.241399    18.907616 H    1 RES 0.0000
   151 H151      24.002177    16.844601    -2.178384 H    1 RES 0.0000
   152 H152      24.002177    16.844601    18.907616 H    1 RES 0.0000
   153 H153      -4.233432     2.892835    -2.179419 H    1 RES 0.0000
   154 H154      -4.233432     2.892835    18.906581 H    1 RES 0.0000
   155 H155      -4.233432    23.978835    -2.179419 H    1 RES 0.0000
   156 H156      -4.233432    23.978835    18.906581 H    1 RES 0.0000
   157 H157      16.852568     2.892835    -2.179419 H    1 RES 0.0000
   158 H158      16.852568     2.892835    18.906581 H    1 RES 0.0000
   159 H159      16.852568    23.978835    -2.179419 H    1 RES 0.0000
   160 H160      16.852568    23.978835    18.906581 H    1 RES 0.0000
   161 H161      -4.248189     5.352644    -2.122765 H    1 RES 0.0000
   162 H162      -4.248189     5.352644    18.963235 H    1 RES 0.0000
   163 H163      16.837811     5.352644    -2.122765 H    1 RES 0.0000
   164 H164      16.837811     5.352644    18.963235 H    1 RES 0.0000
   165 H165       0.032451     7.246876    -2.107016 H    1 RES 0.0000
   166 H166       0.032451     7.246876    18.978984 H    1 RES 0.0000
   167 H167      21.118451     7.246876    -2.107016 H    1 RES 0.0000
   168 H168      21.118451     7.246876    18.978984 H    1 RES 0.0000
   169 H169       0.032288     9.622652    -2.106971 H    1 RES 0.0000
   170 H170       0.032288     9.622652    18.979029 H    1 RES 0.0000
   171 H171      21.118288     9.622652    -2.106971 H    1 RES 0.0000
   172 H172      21.118288     9.622652    18.979029 H    1 RES 0.0000
   173 H173       0.031911    11.518055    -2.121128 H    1 RES 0.0000
   174 H174       0.031911    11.518055    18.964872 H    1 RES 0.0000
   175 H175      21.117911    11.518055    -2.121128 H    1 RES 0.0000
   176 H176      21.117911    11.518055    18.964872 H    1 RES 0.0000
   177 H177       0.017532    13.975968    -2.177069 H    1 RES 0.0000
   178 H178       0.017532    13.975968    18.908931 H    1 RES 0.0000
   179 H179      21.103532    13.975968    -2.177069 H    1 RES 0.0000
   180 H180      21.103532    13.975968    18.908931 H    1 RES 0.0000
   181 H181      -4.233822    13.975931    -2.040523 H    1 RES 0.0000
   182 H182      -4.233822    13.975931    19.045477 H    1 RES 0.0000
   183 H183      16.852178    13.975931    -2.040523 H    1 RES 0.0000
   184 H184      16.852178    13.975931    19.045477 H    1 RES 0.0000
   185 H185      -4.249435    11.518967    -2.097566 H    1 RES 0.0000
   186 H186      -4.249435    11.518967    18.988434 H    1 RES 0.0000
   187 H187      16.836565    11.518967    -2.097566 H    1 RES 0.0000
   188 H188      16.836565    11.518967    18.988434 H    1 RES 0.0000
   189 H189      -4.249834     9.622695    -2.112126 H    1 RES 0.0000
   190 H190      -4.249834     9.622695    18.973874 H    1 RES 0.0000
   191 H191      16.836166     9.622695    -2.112126 H    1 RES 0.0000
   192 H192      16.836166     9.622695    18.973874 H    1 RES 0.0000
   193 H193      -4.249527     7.247563    -2.109229 H    1 RES 0.0000
   194 H194      -4.249527     7.247563    18.976771 H    1 RES 0.0000
   195 H195      16.836473     7.247563    -2.109229 H    1 RES 0.0000
   196 H196      16.836473     7.247563    18.976771 H    1 RES 0.0000
   197 H197       0.031731     5.351471    -2.092406 H    1 RES 0.0000
   198 H198       0.031731     5.351471    18.993594 H    1 RES 0.0000
   199 H199      21.117731     5.351471    -2.092406 H    1 RES 0.0000
   200 H200      21.117731     5.351471    18.993594 H    1 RES 0.0000
   201 H201       0.015958     2.891960    -2.036215 H    1 RES 0.0000
   202 H202       0.015958     2.891960    19.049785 H    1 RES 0.0000
   203 H203       0.015958    23.977960    -2.036215 H    1 RES 0.0000
   204 H204       0.015958    23.977960    19.049785 H    1 RES 0.0000
   205 H205      21.101958     2.891960    -2.036215 H    1 RES 0.0000
   206 H206      21.101958     2.891960    19.049785 H    1 RES 0.0000
   207 H207      21.101958    23.977960    -2.036215 H    1 RES 0.0000
   208 H208      21.101958    23.977960    19.049785 H    1 RES 0.0000
   209 H209      -2.181199    -4.244894     2.913266 H    1 RES 0.0000
   210 H210      -2.181199    -4.244894    23.999266 H    1 RES 0.0000
   211 H211      -2.181199    16.841106     2.913266 H    1 RES 0.0000
   212 H212      -2.181199    16.841106    23.999266 H    1 RES 0.0000
   213 H213      18.904801    -4.244894     2.913266 H    1 RES 0.0000
   214 H214      18.904801    -4.244894    23.999266 H    1 RES 0.0000
   215 H215      18.904801    16.841106     2.913266 H    1 RES 0.0000
   216 H216      18.904801    16.841106    23.999266 H    1 RES 0.0000
   217 H217      -2.123930    -4.257522     5.347347 H    1 RES 0.0000
   218 H218      -2.123930    16.828478     5.347347 H    1 RES 0.0000
   219 H219      18.962070    -4.257522     5.347347 H    1 RES 0.0000
   220 H220      18.962070    16.828478     5.347347 H    1 RES 0.0000
   221 H221      -2.108839     0.029894     7.247171 H    1 RES 0.0000
   222 H222      -2.108839    21.115894     7.247171 H    1 RES 0.0000
   223 H223      18.977161     0.029894     7.247171 H    1 RES 0.0000
   224 H224      18.977161    21.115894     7.247171 H    1 RES 0.0000
   225 H225      -2.108638     0.029820     9.621139 H    1 RES 0.0000
   226 H226      -2.108638    21.115820     9.621139 H    1 RES 0.0000
   227 H227      18.977362     0.029820     9.621139 H    1 RES 0.0000
   228 H228      18.977362    21.115820     9.621139 H    1 RES 0.0000
   229 H229      -2.121085     0.038014    11.519974 H    1 RES 0.0000
   230 H230      -2.121085    21.124014    11.519974 H    1 RES 0.0000
   231 H231      18.964915     0.038014    11.519974 H    1 RES 0.0000
   232 H232      18.964915    21.124014    11.519974 H    1 RES 0.0000
   233 H233      -2.179393     0.026269    13.954830 H    1 RES 0.0000
   234 H234      -2.179393    21.112269    13.954830 H    1 RES 0.0000
   235 H235      18.906607     0.026269    13.954830 H    1 RES 0.0000
   236 H236      18.906607    21.112269    13.954830 H    1 RES 0.0000
   237 H237      -2.040116    -4.246120    13.955451 H    1 RES 0.0000
   238 H238      -2.040116    16.839880    13.955451 H    1 RES 0.0000
   239 H239      19.045884    -4.246120    13.955451 H    1 RES 0.0000
   240 H240      19.045884    16.839880    13.955451 H    1 RES 0.0000
   241 H241      -2.099667    -4.257708    11.520565 H    1 RES 0.0000
   242 H242      -2.099667    16.828292    11.520565 H    1 RES 0.0000
   243 H243      18.986333    -4.257708    11.520565 H    1 RES 0.0000
   244 H244      18.986333    16.828292    11.520565 H    1 RES 0.0000
   245 H245      -2.112885    -4.249252     9.621309 H    1 RES 0.0000
   246 H246      -2.112885    16.836748     9.621309 H    1 RES 0.0000
   247 H247      18.973115    -4.249252     9.621309 H    1 RES 0.0000
   248 H248      18.973115    16.836748     9.621309 H    1 RES 0.0000
   249 H249      -2.109962    -4.249551     7.246645 H    1 RES 0.0000
   250 H250      -2.109962    16.836449     7.246645 H    1 RES 0.0000
   251 H251      18.976038    -4.249551     7.246645 H    1 RES 0.0000
   252 H252      18.976038    16.836449     7.246645 H    1 RES 0.0000
   253 H253      -2.095003     0.039037     5.348268 H    1 RES 0.0000
   254 H254      -2.095003    21.125037     5.348268 H    1 RES 0.0000
   255 H255      18.990997     0.039037     5.348268 H    1 RES 0.0000
   256 H256      18.990997    21.125037     5.348268 H    1 RES 0.0000
   257 H257      -2.034611     0.027516     2.914057 H    1 RES 0.0000
   258 H258      -2.034611     0.027516    24.000057 H    1 RES 0.0000
   259 H259      -2.034611    21.113516     2.914057 H    1 RES 0.0000
   260 H260      -2.034611    21.113516    24.000057 H    1 RES 0.0000
   261 H261      19.051389     0.027516     2.914057 H    1 RES 0.0000
   262 H262      19.051389     0.027516    24.000057 H    1 RES 0.0000
   263 H263      19.051389    21.113516     2.914057 H    1 RES 0.0000
   264 H264      19.051389    21.113516    24.000057 H    1 RES 0.0000
   265 C265      13.961021    10.542935    10.542871 C    1 RES 0.0000
   266 C266      15.432832    10.544264    10.541526 C    1 RES 0.0000
   267 C267      16.121899    11.750592    10.580779 C    1 RES 0.0000
   268 C268      -3.589735    11.743571    10.558911 C    1 RES 0.0000
   269 C269      17.496265    11.743571    10.558911 C    1 RES 0.0000
   270 C270      -2.872519    10.544489    10.543242 C    1 RES 0.0000
   271 C271      18.213481    10.544489    10.543242 C    1 RES 0.0000
   272 C272      -1.412383    10.544559    10.543551 C    1 RES 0.0000
   273 C273      19.673617    10.544559    10.543551 C    1 RES 0.0000
   274 C274      -0.686124     9.354436    10.542416 C    1 RES 0.0000
   275 C275      20.399876     9.354436    10.542416 C    1 RES 0.0000
   276 C276       0.685989     9.354396    10.541649 C    1 RES 0.0000
   277 C277      21.771989     9.354396    10.541649 C    1 RES 0.0000
   278 C278       1.412623    10.544337    10.542576 C    1 RES 0.0000
   279 C279      22.498623    10.544337    10.542576 C    1 RES 0.0000
   280 C280       2.872730    10.543641    10.542494 C    1 RES 0.0000
   281 C281      23.958730    10.543641    10.542494 C    1 RES 0.0000
   282 C282       3.588892     9.343879    10.556950 C    1 RES 0.0000
   283 C283      24.674892     9.343879    10.556950 C    1 RES 0.0000
   284 C284       4.963263     9.335972    10.579821 C    1 RES 0.0000
   285 C285       5.653314    10.541973    10.542460 C    1 RES 0.0000
   286 C286       7.124936    10.540690    10.543729 C    1 RES 0.0000
   287 C287       4.964531    11.748569    10.504620 C    1 RES 0.0000
   288 C288       3.590123    11.742693    10.527885 C    1 RES 0.0000
   289 C289      24.676123    11.742693    10.527885 C    1 RES 0.0000
   290 C290       0.686543    11.734616    10.544000 C    1 RES 0.0000
   291 C291      21.772543    11.734616    10.544000 C    1 RES 0.0000
   292 C292      -0.685589    11.734393    10.544376 C    1 RES 0.0000
   293 C293      20.400411    11.734393    10.544376 C    1 RES 0.0000
   294 C294      -3.589301     9.345203    10.526651 C    1 RES 0.0000
   295 C295      17.496699     9.345203    10.526651 C    1 RES 0.0000
   296 C296      16.122316     9.338116    10.502859 C    1 RES 0.0000
   297 C297      10.543096    13.951760    10.544467 C    1 RES 0.0000
   298 C298      10.543474    15.422355    10.543500 C    1 RES 0.0000
   299 C299       9.338581    16.107584    10.502090 C    1 RES 0.0000
   300 C300       9.345747    -3.602651    10.526942 C    1 RES 0.0000
   301 C301       9.345747    17.483349    10.526942 C    1 RES 0.0000
   302 C302      10.543260    -2.881478    10.543696 C    1 RES 0.0000
   303 C303      10.543260    18.204522    10.543696 C    1 RES 0.0000
   304 C304      10.543194    -1.416889    10.543610 C    1 RES 0.0000
   305 C305      10.543194    19.669111    10.543610 C    1 RES 0.0000
   306 C306      11.732024    -0.687385    10.544622 C    1 RES 0.0000
   307 C307      11.732024    20.398615    10.544622 C    1 RES 0.0000
   308 C308      11.731626     0.686378    10.544385 C    1 RES 0.0000
   309 C309      11.731626    21.772378    10.544385 C    1 RES 0.0000
   310 C310      10.542818     1.415875    10.542739 C    1 RES 0.0000
   311 C311      10.542818    22.501875    10.542739 C    1 RES 0.0000
   312 C312      10.542421     2.880290    10.542373 C    1 RES 0.0000
   313 C313      10.542421    23.966290    10.542373 C    1 RES 0.0000
   314 C314      11.739969     3.601604    10.528093 C    1 RES 0.0000
   315 C315      11.739969    24.687604    10.528093 C    1 RES 0.0000
   316 C316      11.746837     4.977276    10.503394 C    1 RES 0.0000
   317 C317      10.542241     5.662937    10.542773 C    1 RES 0.0000
   318 C318      10.542929     7.133599    10.544887 C    1 RES 0.0000
   319 C319       9.337567     4.977402    10.581263 C    1 RES 0.0000
   320 C320       9.344926     3.601651    10.556438 C    1 RES 0.0000
   321 C321       9.344926    24.687651    10.556438 C    1 RES 0.0000
   322 C322       9.354059     0.686222    10.541584 C    1 RES 0.0000
   323 C323       9.354059    21.772222    10.541584 C    1 RES 0.0000
   324 C324       9.354271    -0.687524    10.542284 C    1 RES 0.0000
   325 C325       9.354271    20.398476    10.542284 C    1 RES 0.0000
   326 C326      11.741038    -3.602168    10.559891 C    1 RES 0.0000
   327 C327      11.741038    17.483832    10.559891 C    1 RES 0.0000
   328 C328      11.748057    16.108054    10.584230 C    1 RES 0.0000
   329 C329      10.541493    10.542727    13.932670 C    1 RES 0.0000
   330 C330      10.542109    10.544081    15.414696 C    1 RES 0.0000
   331 C331      10.502550     9.340669    16.109616 C    1 RES 0.0000
   332 C332      10.528325     9.345108    -3.599326 C    1 RES 0.0000
   333 C333      10.528325     9.345108    17.486674 C    1 RES 0.0000
   334 C334      10.544686    10.544318    -2.879964 C    1 RES 0.0000
   335 C335      10.544686    10.544318    18.206036 C    1 RES 0.0000
   336 C336      10.544953    10.544435    -1.416939 C    1 RES 0.0000
   337 C337      10.544953    10.544435    19.669061 C    1 RES 0.0000
   338 C338      10.545707    11.731796    -0.685743 C    1 RES 0.0000
   339 C339      10.545707    11.731796    20.400257 C    1 RES 0.0000
   340 C340      10.545129    11.731994     0.687411 C    1 RES 0.0000
   341 C341      10.545129    11.731994    21.773411 C    1 RES 0.0000
   342 C342      10.543746    10.544244     1.417945 C    1 RES 0.0000
   343 C343      10.543746    10.544244    22.503945 C    1 RES 0.0000
   344 C344      10.543219    10.543781     2.880949 C    1 RES 0.0000
   345 C345      10.543219    10.543781    23.966949 C    1 RES 0.0000
   346 C346      10.528113    11.743053     3.600145 C    1 RES 0.0000
   347 C347      10.528113    11.743053    24.686145 C    1 RES 0.0000
   348 C348      10.502428    11.746617     4.977270 C    1 RES 0.0000
   349 C349      10.542001    10.542836     5.671646 C    1 RES 0.0000
   350 C350      10.542437    10.541619     7.153287 C    1 RES 0.0000
   351 C351      10.582136     9.339368     4.976568 C    1 RES 0.0000
   352 C352      10.557779     9.344151     3.599483 C    1 RES 0.0000
   353 C353      10.557779     9.344151    24.685483 C    1 RES 0.0000
   354 C354      10.543098     9.356746     0.686973 C    1 RES 0.0000
   355 C355      10.543098     9.356746    21.772973 C    1 RES 0.0000
   356 C356      10.543833     9.356795    -0.686203 C    1 RES 0.0000
   357 C357      10.543833     9.356795    20.399797 C    1 RES 0.0000
   358 C358      10.560409    11.743306    -3.599783 C    1 RES 0.0000
   359 C359      10.560409    11.743306    17.486217 C    1 RES 0.0000
   360 C360      10.583631    11.747651    16.109113 C    1 RES 0.0000
   361 C361       1.309301    -2.107260    -2.109082 C    1 RES 0.0000
   362 C362       1.309301    -2.107260    18.976918 C    1 RES 0.0000
   363 C363       1.309301    18.978740    -2.109082 C    1 RES 0.0000
   364 C364       1.309301    18.978740    18.976918 C    1 RES 0.0000
   365 C365      22.395301    -2.107260    -2.109082 C    1 RES 0.0000
   366 C366      22.395301    -2.107260    18.976918 C    1 RES 0.0000
   367 C367      22.395301    18.978740    -2.109082 C    1 RES 0.0000
   368 C368      22.395301    18.978740    18.976918 C    1 RES 0.0000
   369 C369       2.781007    -2.108612    -2.107418 C    1 RES 0.0000
   370 C370       2.781007    -2.108612    18.978582 C    1 RES 0.0000
   371 C371       2.781007    18.977388    -2.107418 C    1 RES 0.0000
   372 C372       2.781007    18.977388    18.978582 C    1 RES 0.0000
   373 C373      23.867007    -2.108612    -2.107418 C    1 RES 0.0000
   374 C374      23.867007    -2.108612    18.978582 C    1 RES 0.0000
   375 C375      23.867007    18.977388    -2.107418 C    1 RES 0.0000
   376 C376      23.867007    18.977388    18.978582 C    1 RES 0.0000
   377 C377       3.470779    -0.902531    -2.068314 C    1 RES 0.0000
   378 C378       3.470779    -0.902531    19.017686 C    1 RES 0.0000
   379 C379       3.470779    20.183469    -2.068314 C    1 RES 0.0000
   380 C380       3.470779    20.183469    19.017686 C    1 RES 0.0000
   381 C381      24.556779    -0.902531    -2.068314 C    1 RES 0.0000
   382 C382      24.556779    -0.902531    19.017686 C    1 RES 0.0000
   383 C383      24.556779    20.183469    -2.068314 C    1 RES 0.0000
   384 C384      24.556779    20.183469    19.017686 C    1 RES 0.0000
   385 C385       4.845175    -0.909953    -2.091404 C    1 RES 0.0000
   386 C386       4.845175    -0.909953    18.994596 C    1 RES 0.0000
   387 C387       4.845175    20.176047    -2.091404 C    1 RES 0.0000
   388 C388       4.845175    20.176047    18.994596 C    1 RES 0.0000
   389 C389       5.561651    -2.109505    -2.107425 C    1 RES 0.0000
   390 C390       5.561651    -2.109505    18.978575 C    1 RES 0.0000
   391 C391       5.561651    18.976495    -2.107425 C    1 RES 0.0000
   392 C392       5.561651    18.976495    18.978575 C    1 RES 0.0000
   393 C393       7.021783    -2.109889    -2.107870 C    1 RES 0.0000
   394 C394       7.021783    -2.109889    18.978130 C    1 RES 0.0000
   395 C395       7.021783    18.976111    -2.107870 C    1 RES 0.0000
   396 C396       7.021783    18.976111    18.978130 C    1 RES 0.0000
   397 C397       7.748036    -3.300094    -2.108763 C    1 RES 0.0000
   398 C398       7.748036    -3.300094    18.977237 C    1 RES 0.0000
   399 C399       7.748036    17.785906    -2.108763 C    1 RES 0.0000
   400 C400       7.748036    17.785906    18.977237 C    1 RES 0.0000
   401 C401       9.120176    -3.299917    -2.109663 C    1 RES 0.0000
   402 C402       9.120176    -3.299917    18.976337 C    1 RES 0.0000
   403 C403       9.120176    17.786083    -2.109663 C    1 RES 0.0000
   404 C404       9.120176    17.786083    18.976337 C    1 RES 0.0000
   405 C405       9.846895    -2.110050    -2.109012 C    1 RES 0.0000
   406 C406       9.846895    -2.110050    18.976988 C    1 RES 0.0000
   407 C407       9.846895    18.975950    -2.109012 C    1 RES 0.0000
   408 C408       9.846895    18.975950    18.976988 C    1 RES 0.0000
   409 C409      11.307058    -2.109876    -2.109233 C    1 RES 0.0000
   410 C410      11.307058    -2.109876    18.976767 C    1 RES 0.0000
   411 C411      11.307058    18.976124    -2.109233 C    1 RES 0.0000
   412 C412      11.307058    18.976124    18.976767 C    1 RES 0.0000
   413 C413      12.024632    -3.308740    -2.094689 C    1 RES 0.0000
   414 C414      12.024632    -3.308740    18.991311 C    1 RES 0.0000
   415 C415      12.024632    17.777260    -2.094689 C    1 RES 0.0000
   416 C416      12.024632    17.777260    18.991311 C    1 RES 0.0000
   417 C417      13.399028    -3.315366    -2.071627 C    1 RES 0.0000
   418 C418      13.399028    -3.315366    19.014373 C    1 RES 0.0000
   419 C419      13.399028    17.770634    -2.071627 C    1 RES 0.0000
   420 C420      13.399028    17.770634    19.014373 C    1 RES 0.0000
   421 C421      14.087571    -2.108702    -2.109079 C    1 RES 0.0000
   422 C422      14.087571    -2.108702    18.976921 C    1 RES 0.0000
   423 C423      14.087571    18.977298    -2.109079 C    1 RES 0.0000
   424 C424      14.087571    18.977298    18.976921 C    1 RES 0.0000
   425 C425      15.559378    -2.107321    -2.109302 C    1 RES 0.0000
   426 C426      15.559378    -2.107321    18.976698 C    1 RES 0.0000
   427 C427      15.559378    18.978679    -2.109302 C    1 RES 0.0000
   428 C428      15.559378    18.978679    18.976698 C    1 RES 0.0000
   429 C429      13.397723    -0.902736    -2.146165 C    1 RES 0.0000
   430 C430      13.397723    -0.902736    18.939835 C    1 RES 0.0000
   431 C431      13.397723    20.183264    -2.146165 C    1 RES 0.0000
   432 C432      13.397723    20.183264    18.939835 C    1 RES 0.0000
   433 C433      12.023358    -0.910286    -2.123420 C    1 RES 0.0000
   434 C434      12.023358    -0.910286    18.962580 C    1 RES 0.0000
   435 C435      12.023358    20.175714    -2.123420 C    1 RES 0.0000
   436 C436      12.023358    20.175714    18.962580 C    1 RES 0.0000
   437 C437       9.120495    -0.920000    -2.108079 C    1 RES 0.0000
   438 C438       9.120495    -0.920000    18.977921 C    1 RES 0.0000
   439 C439       9.120495    20.166000    -2.108079 C    1 RES 0.0000
   440 C440       9.120495    20.166000    18.977921 C    1 RES 0.0000
   441 C441       7.748366    -0.919924    -2.107701 C    1 RES 0.0000
   442 C442       7.748366    -0.919924    18.978299 C    1 RES 0.0000
   443 C443       7.748366    20.166076    -2.107701 C    1 RES 0.0000
   444 C444       7.748366    20.166076    18.978299 C    1 RES 0.0000
   445 C445       4.844481    -3.308670    -2.123376 C    1 RES 0.0000
   446 C446       4.844481    -3.308670    18.962624 C    1 RES 0.0000
   447 C447       4.844481    17.777330    -2.123376 C    1 RES 0.0000
   448 C448       4.844481    17.777330    18.962624 C    1 RES 0.0000
   449 C449       3.470043    -3.315015    -2.146059 C    1 RES 0.0000
   450 C450       3.470043    -3.315015    18.939941 C    1 RES 0.0000
   451 C451       3.470043    17.770985    -2.146059 C    1 RES 0.0000
   452 C452       3.470043    17.770985    18.939941 C    1 RES 0.0000
   453 C453      24.556043    -3.315015    -2.146059 C    1 RES 0.0000
   454 C454      24.556043    -3.315015    18.939941 C    1 RES 0.0000
   455 C455      24.556043    17.770985    -2.146059 C    1 RES 0.0000
   456 C456      24.556043    17.770985    18.939941 C    1 RES 0.0000
   457 C457      -2.108600     1.300743    -2.110068 C    1 RES 0.0000
   458 C458      -2.108600     1.300743    18.975932 C    1 RES 0.0000
   459 C459      -2.108600    22.386743    -2.110068 C    1 RES 0.0000
   460 C460      -2.108600    22.386743    18.975932 C    1 RES 0.0000
   461 C461      18.977400     1.300743    -2.110068 C    1 RES 0.0000
   462 C462      18.977400     1.300743    18.975932 C    1 RES 0.0000
   463 C463      18.977400    22.386743    -2.110068 C    1 RES 0.0000
   464 C464      18.977400    22.386743    18.975932 C    1 RES 0.0000
   465 C465      -2.108698     2.771466    -2.108759 C    1 RES 0.0000
   466 C466      -2.108698     2.771466    18.977241 C    1 RES 0.0000
   467 C467      -2.108698    23.857466    -2.108759 C    1 RES 0.0000
   468 C468      -2.108698    23.857466    18.977241 C    1 RES 0.0000
   469 C469      18.977302     2.771466    -2.108759 C    1 RES 0.0000
   470 C470      18.977302     2.771466    18.977241 C    1 RES 0.0000
   471 C471      18.977302    23.857466    -2.108759 C    1 RES 0.0000
   472 C472      18.977302    23.857466    18.977241 C    1 RES 0.0000
   473 C473      -3.313167     3.457254    -2.148567 C    1 RES 0.0000
   474 C474      -3.313167     3.457254    18.937433 C    1 RES 0.0000
   475 C475      -3.313167    24.543254    -2.148567 C    1 RES 0.0000
   476 C476      -3.313167    24.543254    18.937433 C    1 RES 0.0000
   477 C477      17.772833     3.457254    -2.148567 C    1 RES 0.0000
   478 C478      17.772833     3.457254    18.937433 C    1 RES 0.0000
   479 C479      17.772833    24.543254    -2.148567 C    1 RES 0.0000
   480 C480      17.772833    24.543254    18.937433 C    1 RES 0.0000
   481 C481      -3.305931     4.832949    -2.123621 C    1 RES 0.0000
   482 C482      -3.305931     4.832949    18.962379 C    1 RES 0.0000
   483 C483      17.780069     4.832949    -2.123621 C    1 RES 0.0000
   484 C484      17.780069     4.832949    18.962379 C    1 RES 0.0000
   485 C485      -2.108318     5.554127    -2.107696 C    1 RES 0.0000
   486 C486      -2.108318     5.554127    18.978304 C    1 RES 0.0000
   487 C487      18.977682     5.554127    -2.107696 C    1 RES 0.0000
   488 C488      18.977682     5.554127    18.978304 C    1 RES 0.0000
   489 C489      -2.108431     7.018534    -2.107919 C    1 RES 0.0000
   490 C490      -2.108431     7.018534    18.978081 C    1 RES 0.0000
   491 C491      18.977569     7.018534    -2.107919 C    1 RES 0.0000
   492 C492      18.977569     7.018534    18.978081 C    1 RES 0.0000
   493 C493      -0.919602     7.748054    -2.107522 C    1 RES 0.0000
   494 C494      -0.919602     7.748054    18.978478 C    1 RES 0.0000
   495 C495      20.166398     7.748054    -2.107522 C    1 RES 0.0000
   496 C496      20.166398     7.748054    18.978478 C    1 RES 0.0000
   497 C497      -0.919810     9.121803    -2.107825 C    1 RES 0.0000
   498 C498      -0.919810     9.121803    18.978175 C    1 RES 0.0000
   499 C499      20.166190     9.121803    -2.107825 C    1 RES 0.0000
   500 C500      20.166190     9.121803    18.978175 C    1 RES 0.0000
   501 C501      -2.108614     9.851332    -2.109095 C    1 RES 0.0000
   502 C502      -2.108614     9.851332    18.976905 C    1 RES 0.0000
   503 C503      18.977386     9.851332    -2.109095 C    1 RES 0.0000
   504 C504      18.977386     9.851332    18.976905 C    1 RES 0.0000
   505 C505      -2.108559    11.315910    -2.109162 C    1 RES 0.0000
   506 C506      -2.108559    11.315910    18.976838 C    1 RES 0.0000
   507 C507      18.977441    11.315910    -2.109162 C    1 RES 0.0000
   508 C508      18.977441    11.315910    18.976838 C    1 RES 0.0000
   509 C509      -0.910793    12.036697    -2.123280 C    1 RES 0.0000
   510 C510      -0.910793    12.036697    18.962720 C    1 RES 0.0000
   511 C511      20.175207    12.036697    -2.123280 C    1 RES 0.0000
   512 C512      20.175207    12.036697    18.962720 C    1 RES 0.0000
   513 C513      -0.903285    13.412463    -2.147830 C    1 RES 0.0000
   514 C514      -0.903285    13.412463    18.938170 C    1 RES 0.0000
   515 C515      20.182715    13.412463    -2.147830 C    1 RES 0.0000
   516 C516      20.182715    13.412463    18.938170 C    1 RES 0.0000
   517 C517      -2.108114    14.097876    -2.109181 C    1 RES 0.0000
   518 C518      -2.108114    14.097876    18.976819 C    1 RES 0.0000
   519 C519      18.977886    14.097876    -2.109181 C    1 RES 0.0000
   520 C520      18.977886    14.097876    18.976819 C    1 RES 0.0000
   521 C521      -2.108441    15.568420    -2.110535 C    1 RES 0.0000
   522 C522      -2.108441    15.568420    18.975465 C    1 RES 0.0000
   523 C523      18.977559    15.568420    -2.110535 C    1 RES 0.0000
   524 C524      18.977559    15.568420    18.975465 C    1 RES 0.0000
   525 C525      -3.312965    13.412555    -2.069892 C    1 RES 0.0000
   526 C526      -3.312965    13.412555    19.016108 C    1 RES 0.0000
   527 C527      17.773035    13.412555    -2.069892 C    1 RES 0.0000
   528 C528      17.773035    13.412555    19.016108 C    1 RES 0.0000
   529 C529      -3.306201    12.036797    -2.094656 C    1 RES 0.0000
   530 C530      -3.306201    12.036797    18.991344 C    1 RES 0.0000
   531 C531      17.779799    12.036797    -2.094656 C    1 RES 0.0000
   532 C532      17.779799    12.036797    18.991344 C    1 RES 0.0000
   533 C533      -3.297535     9.121981    -2.110014 C    1 RES 0.0000
   534 C534      -3.297535     9.121981    18.975986 C    1 RES 0.0000
   535 C535      17.788465     9.121981    -2.110014 C    1 RES 0.0000
   536 C536      17.788465     9.121981    18.975986 C    1 RES 0.0000
   537 C537      -3.297139     7.748221    -2.109056 C    1 RES 0.0000
   538 C538      -3.297139     7.748221    18.976944 C    1 RES 0.0000
   539 C539      17.788861     7.748221    -2.109056 C    1 RES 0.0000
   540 C540      17.788861     7.748221    18.976944 C    1 RES 0.0000
   541 C541      -0.910942     4.832589    -2.091789 C    1 RES 0.0000
   542 C542      -0.910942     4.832589    18.994211 C    1 RES 0.0000
   543 C543      20.175058     4.832589    -2.091789 C    1 RES 0.0000
   544 C544      20.175058     4.832589    18.994211 C    1 RES 0.0000
   545 C545      -0.903989     3.456865    -2.067535 C    1 RES 0.0000
   546 C546      -0.903989     3.456865    19.018465 C    1 RES 0.0000
   547 C547      -0.903989    24.542865    -2.067535 C    1 RES 0.0000
   548 C548      -0.903989    24.542865    19.018465 C    1 RES 0.0000
   549 C549      20.182011     3.456865    -2.067535 C    1 RES 0.0000
   550 C550      20.182011     3.456865    19.018465 C    1 RES 0.0000
   551 C551      20.182011    24.542865    -2.067535 C    1 RES 0.0000
   552 C552      20.182011    24.542865    19.018465 C    1 RES 0.0000
   553 C553      -2.106771    -2.107411     1.280857 C    1 RES 0.0000
   554 C554      -2.106771    -2.107411    22.366857 C    1 RES 0.0000
   555 C555      -2.106771    18.978589     1.280857 C    1 RES 0.0000
   556 C556      -2.106771    18.978589    22.366857 C    1 RES 0.0000
   557 C557      18.979229    -2.107411     1.280857 C    1 RES 0.0000
   558 C558      18.979229    -2.107411    22.366857 C    1 RES 0.0000
   559 C559      18.979229    18.978589     1.280857 C    1 RES 0.0000
   560 C560      18.979229    18.978589    22.366857 C    1 RES 0.0000
   561 C561      -2.107302    -2.108621     2.762576 C    1 RES 0.0000
   562 C562      -2.107302    -2.108621    23.848576 C    1 RES 0.0000
   563 C563      -2.107302    18.977379     2.762576 C    1 RES 0.0000
   564 C564      -2.107302    18.977379    23.848576 C    1 RES 0.0000
   565 C565      18.978698    -2.108621     2.762576 C    1 RES 0.0000
   566 C566      18.978698    -2.108621    23.848576 C    1 RES 0.0000
   567 C567      18.978698    18.977379     2.762576 C    1 RES 0.0000
   568 C568      18.978698    18.977379    23.848576 C    1 RES 0.0000
   569 C569      -2.148854    -3.312317     3.456980 C    1 RES 0.0000
   570 C570      -2.148854    -3.312317    24.542980 C    1 RES 0.0000
   571 C571      -2.148854    17.773683     3.456980 C    1 RES 0.0000
   572 C572      -2.148854    17.773683    24.542980 C    1 RES 0.0000
   573 C573      18.937146    -3.312317     3.456980 C    1 RES 0.0000
   574 C574      18.937146    -3.312317    24.542980 C    1 RES 0.0000
   575 C575      18.937146    17.773683     3.456980 C    1 RES 0.0000
   576 C576      18.937146    17.773683    24.542980 C    1 RES 0.0000
   577 C577      -2.124707    -3.308610     4.834131 C    1 RES 0.0000
   578 C578      -2.124707    17.777390     4.834131 C    1 RES 0.0000
   579 C579      18.961293    -3.308610     4.834131 C    1 RES 0.0000
   580 C580      18.961293    17.777390     4.834131 C    1 RES 0.0000
   581 C581      -2.108606    -2.109378     5.553379 C    1 RES 0.0000
   582 C582      -2.108606    18.976622     5.553379 C    1 RES 0.0000
   583 C583      18.977394    -2.109378     5.553379 C    1 RES 0.0000
   584 C584      18.977394    18.976622     5.553379 C    1 RES 0.0000
   585 C585      -2.109211    -2.109812     7.016419 C    1 RES 0.0000
   586 C586      -2.109211    18.976188     7.016419 C    1 RES 0.0000
   587 C587      18.976789    -2.109812     7.016419 C    1 RES 0.0000
   588 C588      18.976789    18.976188     7.016419 C    1 RES 0.0000
   589 C589      -2.109144    -0.922326     7.747397 C    1 RES 0.0000
   590 C590      -2.109144    20.163674     7.747397 C    1 RES 0.0000
   591 C591      18.976856    -0.922326     7.747397 C    1 RES 0.0000
   592 C592      18.976856    20.163674     7.747397 C    1 RES 0.0000
   593 C593      -2.109511    -0.922410     9.120593 C    1 RES 0.0000
   594 C594      -2.109511    20.163590     9.120593 C    1 RES 0.0000
   595 C595      18.976489    -0.922410     9.120593 C    1 RES 0.0000
   596 C596      18.976489    20.163590     9.120593 C    1 RES 0.0000
   597 C597      -2.110392    -2.109978     9.851464 C    1 RES 0.0000
   598 C598      -2.110392    18.976022     9.851464 C    1 RES 0.0000
   599 C599      18.975608    -2.109978     9.851464 C    1 RES 0.0000
   600 C600      18.975608    18.976022     9.851464 C    1 RES 0.0000
   601 C601      -2.110305    -2.110098    11.314511 C    1 RES 0.0000
   602 C602      -2.110305    18.975902    11.314511 C    1 RES 0.0000
   603 C603      18.975695    -2.110098    11.314511 C    1 RES 0.0000
   604 C604      18.975695    18.975902    11.314511 C    1 RES 0.0000
   605 C605      -2.124486    -0.910780    12.033738 C    1 RES 0.0000
   606 C606      -2.124486    20.175220    12.033738 C    1 RES 0.0000
   607 C607      18.961514    -0.910780    12.033738 C    1 RES 0.0000
   608 C608      18.961514    20.175220    12.033738 C    1 RES 0.0000
   609 C609      -2.148682    -0.906379    13.410793 C    1 RES 0.0000
   610 C610      -2.148682    20.179621    13.410793 C    1 RES 0.0000
   611 C611      18.937318    -0.906379    13.410793 C    1 RES 0.0000
   612 C612      18.937318    20.179621    13.410793 C    1 RES 0.0000
   613 C613      -2.109258    -2.109786    14.105706 C    1 RES 0.0000
   614 C614      -2.109258    18.976214    14.105706 C    1 RES 0.0000
   615 C615      18.976742    -2.109786    14.105706 C    1 RES 0.0000
   616 C616      18.976742    18.976214    14.105706 C    1 RES 0.0000
   617 C617      -2.108969    -2.108193    15.587658 C    1 RES 0.0000
   618 C618      -2.108969    18.977807    15.587658 C    1 RES 0.0000
   619 C619      18.977031    -2.108193    15.587658 C    1 RES 0.0000
   620 C620      18.977031    18.977807    15.587658 C    1 RES 0.0000
   621 C621      -2.070417    -3.313500    13.411446 C    1 RES 0.0000
   622 C622      -2.070417    17.772500    13.411446 C    1 RES 0.0000
   623 C623      19.015583    -3.313500    13.411446 C    1 RES 0.0000
   624 C624      19.015583    17.772500    13.411446 C    1 RES 0.0000
   625 C625      -2.095655    -3.309063    12.034354 C    1 RES 0.0000
   626 C626      -2.095655    17.776937    12.034354 C    1 RES 0.0000
   627 C627      18.990345    -3.309063    12.034354 C    1 RES 0.0000
   628 C628      18.990345    17.776937    12.034354 C    1 RES 0.0000
   629 C629      -2.110958    -3.297341     9.120288 C    1 RES 0.0000
   630 C630      -2.110958    17.788659     9.120288 C    1 RES 0.0000
   631 C631      18.975042    -3.297341     9.120288 C    1 RES 0.0000
   632 C632      18.975042    17.788659     9.120288 C    1 RES 0.0000
   633 C633      -2.110029    -3.297496     7.747130 C    1 RES 0.0000
   634 C634      -2.110029    17.788504     7.747130 C    1 RES 0.0000
   635 C635      18.975971    -3.297496     7.747130 C    1 RES 0.0000
   636 C636      18.975971    17.788504     7.747130 C    1 RES 0.0000
   637 C637      -2.092328    -0.909811     4.834761 C    1 RES 0.0000
   638 C638      -2.092328    20.176189     4.834761 C    1 RES 0.0000
   639 C639      18.993672    -0.909811     4.834761 C    1 RES 0.0000
   640 C640      18.993672    20.176189     4.834761 C    1 RES 0.0000
   641 C641      -2.066854    -0.905177     3.457668 C    1 RES 0.0000
   642 C642      -2.066854    -0.905177    24.543668 C    1 RES 0.0000
   643 C643      -2.066854    20.180823     3.457668 C    1 RES 0.0000
   644 C644      -2.066854    20.180823    24.543668 C    1 RES 0.0000
   645 C645      19.019146    -0.905177     3.457668 C    1 RES 0.0000
   646 C646      19.019146    -0.905177    24.543668 C    1 RES 0.0000
   647 C647      19.019146    20.180823     3.457668 C    1 RES 0.0000
   648 C648      19.019146    20.180823    24.543668 C    1 RES 0.0000
   649 O649      10.542841    10.540810    10.544197 O    1 RES 0.0000
   650 O650      13.381739     9.600137     9.947478 O    1 RES 0.0000
   651 O651      13.382216    11.484519    11.142418 O    1 RES 0.0000
   652 O652       7.705969    11.483216     9.948654 O    1 RES 0.0000
   653 O653       7.702615     9.597137    11.140987 O    1 RES 0.0000
   654 O654       9.778043    13.382710     9.729788 O    1 RES 0.0000
   655 O655      11.306891    13.383775    11.361700 O    1 RES 0.0000
   656 O656      11.307185     7.702261     9.729166 O    1 RES 0.0000
   657 O657       9.780300     7.700223    11.363635 O    1 RES 0.0000
   658 O658       9.697794     9.811140    13.357641 O    1 RES 0.0000
   659 O659      11.385512    11.271746    13.355677 O    1 RES 0.0000
   660 O660       9.702038    11.274127     7.731951 O    1 RES 0.0000
   661 O661      11.383018     9.806747     7.729642 O    1 RES 0.0000
   662 O662      -2.108487    -2.106400    -2.109788 O    1 RES 0.0000
   663 O663      -2.108487    -2.106400    18.976212 O    1 RES 0.0000
   664 O664      -2.108487    18.979600    -2.109788 O    1 RES 0.0000
   665 O665      -2.108487    18.979600    18.976212 O    1 RES 0.0000
   666 O666      18.977513    -2.106400    -2.109788 O    1 RES 0.0000
   667 O667      18.977513    -2.106400    18.976212 O    1 RES 0.0000
   668 O668      18.977513    18.979600    -2.109788 O    1 RES 0.0000
   669 O669      18.977513    18.979600    18.976212 O    1 RES 0.0000
   670 O670       0.730178    -3.048886    -2.708122 O    1 RES 0.0000
   671 O671       0.730178    -3.048886    18.377878 O    1 RES 0.0000
   672 O672       0.730178    18.037114    -2.708122 O    1 RES 0.0000
   673 O673       0.730178    18.037114    18.377878 O    1 RES 0.0000
   674 O674      21.816178    -3.048886    -2.708122 O    1 RES 0.0000
   675 O675      21.816178    -3.048886    18.377878 O    1 RES 0.0000
   676 O676      21.816178    18.037114    -2.708122 O    1 RES 0.0000
   677 O677      21.816178    18.037114    18.377878 O    1 RES 0.0000
   678 O678       0.729936    -1.163714    -1.514264 O    1 RES 0.0000
   679 O679       0.729936    -1.163714    19.571736 O    1 RES 0.0000
   680 O680       0.729936    19.922286    -1.514264 O    1 RES 0.0000
   681 O681       0.729936    19.922286    19.571736 O    1 RES 0.0000
   682 O682      21.815936    -1.163714    -1.514264 O    1 RES 0.0000
   683 O683      21.815936    -1.163714    19.571736 O    1 RES 0.0000
   684 O684      21.815936    19.922286    -1.514264 O    1 RES 0.0000
   685 O685      21.815936    19.922286    19.571736 O    1 RES 0.0000
   686 O686      16.137108    -1.164312    -2.707071 O    1 RES 0.0000
   687 O687      16.137108    -1.164312    18.378929 O    1 RES 0.0000
   688 O688      16.137108    19.921688    -2.707071 O    1 RES 0.0000
   689 O689      16.137108    19.921688    18.378929 O    1 RES 0.0000
   690 O690      16.139603    -3.048438    -1.511766 O    1 RES 0.0000
   691 O691      16.139603    -3.048438    19.574234 O    1 RES 0.0000
   692 O692      16.139603    18.037562    -1.511766 O    1 RES 0.0000
   693 O693      16.139603    18.037562    19.574234 O    1 RES 0.0000
   694 O694      -2.871412     0.733689    -2.928403 O    1 RES 0.0000
   695 O695      -2.871412     0.733689    18.157597 O    1 RES 0.0000
   696 O696      -2.871412    21.819689    -2.928403 O    1 RES 0.0000
   697 O697      -2.871412    21.819689    18.157597 O    1 RES 0.0000
   698 O698      18.214588     0.733689    -2.928403 O    1 RES 0.0000
   699 O699      18.214588     0.733689    18.157597 O    1 RES 0.0000
   700 O700      18.214588    21.819689    -2.928403 O    1 RES 0.0000
   701 O701      18.214588    21.819689    18.157597 O    1 RES 0.0000
   702 O702      -1.344433     0.732664    -1.293987 O    1 RES 0.0000
   703 O703      -1.344433     0.732664    19.792013 O    1 RES 0.0000
   704 O704      -1.344433    21.818664    -1.293987 O    1 RES 0.0000
   705 O705      -1.344433    21.818664    19.792013 O    1 RES 0.0000
   706 O706      19.741567     0.732664    -1.293987 O    1 RES 0.0000
   707 O707      19.741567     0.732664    19.792013 O    1 RES 0.0000
   708 O708      19.741567    21.818664    -1.293987 O    1 RES 0.0000
   709 O709      19.741567    21.818664    19.792013 O    1 RES 0.0000
   710 O710      -1.343511    16.136010    -2.926770 O    1 RES 0.0000
   711 O711      -1.343511    16.136010    18.159230 O    1 RES 0.0000
   712 O712      19.742489    16.136010    -2.926770 O    1 RES 0.0000
   713 O713      19.742489    16.136010    18.159230 O    1 RES 0.0000
   714 O714      -2.873806    16.137794    -1.296240 O    1 RES 0.0000
   715 O715      -2.873806    16.137794    19.789760 O    1 RES 0.0000
   716 O716      18.212194    16.137794    -1.296240 O    1 RES 0.0000
   717 O717      18.212194    16.137794    19.789760 O    1 RES 0.0000
   718 O718      -2.946933    -2.840327     0.702252 O    1 RES 0.0000
   719 O719      -2.946933    -2.840327    21.788252 O    1 RES 0.0000
   720 O720      -2.946933    18.245673     0.702252 O    1 RES 0.0000
   721 O721      -2.946933    18.245673    21.788252 O    1 RES 0.0000
   722 O722      18.139067    -2.840327     0.702252 O    1 RES 0.0000
   723 O723      18.139067    -2.840327    21.788252 O    1 RES 0.0000
   724 O724      18.139067    18.245673     0.702252 O    1 RES 0.0000
   725 O725      18.139067    18.245673    21.788252 O    1 RES 0.0000
   726 O726      -1.266512    -1.372230     0.704652 O    1 RES 0.0000
   727 O727      -1.266512    -1.372230    21.790652 O    1 RES 0.0000
   728 O728      -1.266512    19.713770     0.704652 O    1 RES 0.0000
   729 O729      -1.266512    19.713770    21.790652 O    1 RES 0.0000
   730 O730      19.819488    -1.372230     0.704652 O    1 RES 0.0000
   731 O731      19.819488    -1.372230    21.790652 O    1 RES 0.0000
   732 O732      19.819488    19.713770     0.704652 O    1 RES 0.0000
   733 O733      19.819488    19.713770    21.790652 O    1 RES 0.0000
   734 O734      -2.951528    -1.375214    16.162612 O    1 RES 0.0000
   735 O735      -2.951528    19.710786    16.162612 O    1 RES 0.0000
   736 O736      18.134472    -1.375214    16.162612 O    1 RES 0.0000
   737 O737      18.134472    19.710786    16.162612 O    1 RES 0.0000
   738 O738      -1.265346    -2.837528    16.164729 O    1 RES 0.0000
   739 O739      -1.265346    18.248472    16.164729 O    1 RES 0.0000
   740 O740      19.820654    -2.837528    16.164729 O    1 RES 0.0000
   741 O741      19.820654    18.248472    16.164729 O    1 RES 0.0000
@<TRIPOS>BOND
     1      1    649 1
     2      1    650 1
     3      1    656 1
     4      1    661 1
     5      2    649 1
     6      2    652 1
     7      2    654 1
     8      2    660 1
     9      3    649 1
    10      3    653 1
    11      3    657 1
    12      3    658 1
    13      4    649 1
    14      4    651 1
    15      4    655 1
    16      4    659 1
    17      5    662 1
    18      5    670 1
    19      6    663 1
    20      6    671 1
    21      6    738 1
    22      7    664 1
    23      7    672 1
    24      7    710 1
    25      8    665 1
    26      8    673 1
    27      8    711 1
    28      8    739 1
    29      9    666 1
    30      9    674 1
    31     10    667 1
    32     10    675 1
    33     10    740 1
    34     11    668 1
    35     11    676 1
    36     11    712 1
    37     12    669 1
    38     12    677 1
    39     12    713 1
    40     12    741 1
    41     13    662 1
    42     13    694 1
    43     14    663 1
    44     14    695 1
    45     14    734 1
    46     15    664 1
    47     15    696 1
    48     16    665 1
    49     16    697 1
    50     16    735 1
    51     17    666 1
    52     17    686 1
    53     17    698 1
    54     18    667 1
    55     18    687 1
    56     18    699 1
    57     18    736 1
    58     19    668 1
    59     19    688 1
    60     19    700 1
    61     20    669 1
    62     20    689 1
    63     20    701 1
    64     20    737 1
    65     21    662 1
    66     21    718 1
    67     22    663 1
    68     22    719 1
    69     23    664 1
    70     23    714 1
    71     23    720 1
    72     24    665 1
    73     24    715 1
    74     24    721 1
    75     25    666 1
    76     25    690 1
    77     25    722 1
    78     26    667 1
    79     26    691 1
    80     26    723 1
    81     27    668 1
    82     27    692 1
    83     27    716 1
    84     27    724 1
    85     28    669 1
    86     28    693 1
    87     28    717 1
    88     28    725 1
    89     29    662 1
    90     29    678 1
    91     29    702 1
    92     29    726 1
    93     30    663 1
    94     30    679 1
    95     30    703 1
    96     30    727 1
    97     31    664 1
    98     31    680 1
    99     31    704 1
   100     31    728 1
   101     32    665 1
   102     32    681 1
   103     32    705 1
   104     32    729 1
   105     33    666 1
   106     33    682 1
   107     33    706 1
   108     33    730 1
   109     34    667 1
   110     34    683 1
   111     34    707 1
   112     34    731 1
   113     35    668 1
   114     35    684 1
   115     35    708 1
   116     35    732 1
   117     36    669 1
   118     36    685 1
   119     36    709 1
   120     36    733 1
   121     37    267 1
   122     38    268 1
   123     39    269 1
   124     40    274 1
   125     41    275 1
   126     42    276 1
   127     43    277 1
   128     44    282 1
   129     45    283 1
   130     46    284 1
   131     47    287 1
   132     48    288 1
   133     49    289 1
   134     50    290 1
   135     51    291 1
   136     52    292 1
   137     53    293 1
   138     54    294 1
   139     55    295 1
   140     56    296 1
   141     57    299 1
   142     58    300 1
   143     59    301 1
   144     60    306 1
   145     61    307 1
   146     62    308 1
   147     63    309 1
   148     64    314 1
   149     65    315 1
   150     66    316 1
   151     67    319 1
   152     68    320 1
   153     69    321 1
   154     70    322 1
   155     71    323 1
   156     72    324 1
   157     73    325 1
   158     74    326 1
   159     75    327 1
   160     76    328 1
   161     77    331 1
   162     78    332 1
   163     79    333 1
   164     80    338 1
   165     81    339 1
   166     82    340 1
   167     83    341 1
   168     84    346 1
   169     85    347 1
   170     86    348 1
   171     87    351 1
   172     88    352 1
   173     89    353 1
   174     90    354 1
   175     91    355 1
   176     92    356 1
   177     93    357 1
   178     94    358 1
   179     95    359 1
   180     96    360 1
   181     97    377 1
   182     98    378 1
   183     99    379 1
   184    100    380 1
   185    101    381 1
   186    102    382 1
   187    103    383 1
   188    104    384 1
   189    105    385 1
   190    106    386 1
   191    107    387 1
   192    108    388 1
   193    109    397 1
   194    110    398 1
   195    111    399 1
   196    112    400 1
   197    113    401 1
   198    114    402 1
   199    115    403 1
   200    116    404 1
   201    117    413 1
   202    118    414 1
   203    119    415 1
   204    120    416 1
   205    121    417 1
   206    122    418 1
   207    123    419 1
   208    124    420 1
   209    125    429 1
   210    126    430 1
   211    127    431 1
   212    128    432 1
   213    129    433 1
   214    130    434 1
   215    131    435 1
   216    132    436 1
   217    133    437 1
   218    134    438 1
   219    135    439 1
   220    136    440 1
   221    137    441 1
   222    138    442 1
   223    139    443 1
   224    140    444 1
   225    141    445 1
   226    142    446 1
   227    143    447 1
   228    144    448 1
   229    145    449 1
   230    146    450 1
   231    147    451 1
   232    148    452 1
   233    149    453 1
   234    150    454 1
   235    151    455 1
   236    152    456 1
   237    153    473 1
   238    154    474 1
   239    155    475 1
   240    156    476 1
   241    157    477 1
   242    158    478 1
   243    159    479 1
   244    160    480 1
   245    161    481 1
   246    162    482 1
   247    163    483 1
   248    164    484 1
   249    165    493 1
   250    166    494 1
   251    167    495 1
   252    168    496 1
   253    169    497 1
   254    170    498 1
   255    171    499 1
   256    172    500 1
   257    173    509 1
   258    174    510 1
   259    175    511 1
   260    176    512 1
   261    177    513 1
   262    178    514 1
   263    179    515 1
   264    180    516 1
   265    181    525 1
   266    182    526 1
   267    183    527 1
   268    184    528 1
   269    185    529 1
   270    186    530 1
   271    187    531 1
   272    188    532 1
   273    189    533 1
   274    190    534 1
   275    191    535 1
   276    192    536 1
   277    193    537 1
   278    194    538 1
   279    195    539 1
   280    196    540 1
   281    197    541 1
   282    198    542 1
   283    199    543 1
   284    200    544 1
   285    201    545 1
   286    202    546 1
   287    203    547 1
   288    204    548 1
   289    205    549 1
   290    206    550 1
   291    207    551 1
   292    208    552 1
   293    209    569 1
   294    210    570 1
   295    211    571 1
   296    212    572 1
   297    213    573 1
   298    214    574 1
   299    215    575 1
   300    216    576 1
   301    217    577 1
   302    218    578 1
   303    219    579 1
   304    220    580 1
   305    221    589 1
   306    222    590 1
   307    223    591 1
   308    224    592 1
   309    225    593 1
   310    226    594 1
   311    227    595 1
   312    228    596 1
   313    229    605 1
   314    230    606 1
   315    231    607 1
   316    232    608 1
   317    233    609 1
   318    234    610 1
   319    235    611 1
   320    236    612 1
   321    237    621 1
   322    238    622 1
   323    239    623 1
   324    240    624 1
   325    241    625 1
   326    242    626 1
   327    243    627 1
   328    244    628 1
   329    245    629 1
   330    246    630 1
   331    247    631 1
   332    248    632 1
   333    249    633 1
   334    250    634 1
   335    251    635 1
   336    252    636 1
   337    253    637 1
   338    254    638 1
   339    255    639 1
   340    256    640 1
   341    257    641 1
   342    258    642 1
   343    259    643 1
   344    260    644 1
   345    261    645 1
   346    262    646 1
   347    263    647 1
   348    264    648 1
   349    265    266 1
   350    265    650 1
   351    265    651 1
   352    266    267 1
   353    266    296 1
   354    267    269 1
   355    268    270 1
   356    269    271 1
   357    270    272 1
   358    270    294 1
   359    271    273 1
   360    271    295 1
   361    272    274 1
   362    272    292 1
   363    273    275 1
   364    273    293 1
   365    274    276 1
   366    275    277 1
   367    276    278 1
   368    277    279 1
   369    278    280 1
   370    278    290 1
   371    279    281 1
   372    279    291 1
   373    280    282 1
   374    280    288 1
   375    281    283 1
   376    281    289 1
   377    282    284 1
   378    284    285 1
   379    285    286 1
   380    285    287 1
   381    286    652 1
   382    286    653 1
   383    287    288 1
   384    290    292 1
   385    291    293 1
   386    295    296 1
   387    297    298 1
   388    297    654 1
   389    297    655 1
   390    298    299 1
   391    298    328 1
   392    299    301 1
   393    300    302 1
   394    301    303 1
   395    302    304 1
   396    302    326 1
   397    303    305 1
   398    303    327 1
   399    304    306 1
   400    304    324 1
   401    305    307 1
   402    305    325 1
   403    306    308 1
   404    307    309 1
   405    308    310 1
   406    309    311 1
   407    310    312 1
   408    310    322 1
   409    311    313 1
   410    311    323 1
   411    312    314 1
   412    312    320 1
   413    313    315 1
   414    313    321 1
   415    314    316 1
   416    316    317 1
   417    317    318 1
   418    317    319 1
   419    318    656 1
   420    318    657 1
   421    319    320 1
   422    322    324 1
   423    323    325 1
   424    327    328 1
   425    329    330 1
   426    329    658 1
   427    329    659 1
   428    330    331 1
   429    330    360 1
   430    331    333 1
   431    332    334 1
   432    333    335 1
   433    334    336 1
   434    334    358 1
   435    335    337 1
   436    335    359 1
   437    336    338 1
   438    336    356 1
   439    337    339 1
   440    337    357 1
   441    338    340 1
   442    339    341 1
   443    340    342 1
   444    341    343 1
   445    342    344 1
   446    342    354 1
   447    343    345 1
   448    343    355 1
   449    344    346 1
   450    344    352 1
   451    345    347 1
   452    345    353 1
   453    346    348 1
   454    348    349 1
   455    349    350 1
   456    349    351 1
   457    350    660 1
   458    350    661 1
   459    351    352 1
   460    354    356 1
   461    355    357 1
   462    359    360 1
   463    361    369 1
   464    361    670 1
   465    361    678 1
   466    362    370 1
   467    362    671 1
   468    362    679 1
   469    363    371 1
   470    363    672 1
   471    363    680 1
   472    364    372 1
   473    364    673 1
   474    364    681 1
   475    365    373 1
   476    365    674 1
   477    365    682 1
   478    366    374 1
   479    366    675 1
   480    366    683 1
   481    367    375 1
   482    367    676 1
   483    367    684 1
   484    368    376 1
   485    368    677 1
   486    368    685 1
   487    369    377 1
   488    369    449 1
   489    370    378 1
   490    370    450 1
   491    371    379 1
   492    371    451 1
   493    372    380 1
   494    372    452 1
   495    373    381 1
   496    373    453 1
   497    374    382 1
   498    374    454 1
   499    375    383 1
   500    375    455 1
   501    376    384 1
   502    376    456 1
   503    377    385 1
   504    378    386 1
   505    379    387 1
   506    380    388 1
   507    385    389 1
   508    386    390 1
   509    387    391 1
   510    388    392 1
   511    389    393 1
   512    389    445 1
   513    390    394 1
   514    390    446 1
   515    391    395 1
   516    391    447 1
   517    392    396 1
   518    392    448 1
   519    393    397 1
   520    393    441 1
   521    394    398 1
   522    394    442 1
   523    395    399 1
   524    395    443 1
   525    396    400 1
   526    396    444 1
   527    397    401 1
   528    398    402 1
   529    399    403 1
   530    400    404 1
   531    401    405 1
   532    402    406 1
   533    403    407 1
   534    404    408 1
   535    405    409 1
   536    405    437 1
   537    406    410 1
   538    406    438 1
   539    407    411 1
   540    407    439 1
   541    408    412 1
   542    408    440 1
   543    409    413 1
   544    409    433 1
   545    410    414 1
   546    410    434 1
   547    411    415 1
   548    411    435 1
   549    412    416 1
   550    412    436 1
   551    413    417 1
   552    414    418 1
   553    415    419 1
   554    416    420 1
   555    417    421 1
   556    418    422 1
   557    419    423 1
   558    420    424 1
   559    421    425 1
   560    421    429 1
   561    422    426 1
   562    422    430 1
   563    423    427 1
   564    423    431 1
   565    424    428 1
   566    424    432 1
   567    425    686 1
   568    425    690 1
   569    426    687 1
   570    426    691 1
   571    427    688 1
   572    427    692 1
   573    428    689 1
   574    428    693 1
   575    429    433 1
   576    430    434 1
   577    431    435 1
   578    432    436 1
   579    437    441 1
   580    438    442 1
   581    439    443 1
   582    440    444 1
   583    445    449 1
   584    446    450 1
   585    447    451 1
   586    448    452 1
   587    457    465 1
   588    457    694 1
   589    457    702 1
   590    458    466 1
   591    458    695 1
   592    458    703 1
   593    459    467 1
   594    459    696 1
   595    459    704 1
   596    460    468 1
   597    460    697 1
   598    460    705 1
   599    461    469 1
   600    461    698 1
   601    461    706 1
   602    462    470 1
   603    462    699 1
   604    462    707 1
   605    463    471 1
   606    463    700 1
   607    463    708 1
   608    464    472 1
   609    464    701 1
   610    464    709 1
   611    465    473 1
   612    465    545 1
   613    466    474 1
   614    466    546 1
   615    467    475 1
   616    467    547 1
   617    468    476 1
   618    468    548 1
   619    469    477 1
   620    469    549 1
   621    470    478 1
   622    470    550 1
   623    471    479 1
   624    471    551 1
   625    472    480 1
   626    472    552 1
   627    473    481 1
   628    474    482 1
   629    477    483 1
   630    478    484 1
   631    481    485 1
   632    482    486 1
   633    483    487 1
   634    484    488 1
   635    485    489 1
   636    485    541 1
   637    486    490 1
   638    486    542 1
   639    487    491 1
   640    487    543 1
   641    488    492 1
   642    488    544 1
   643    489    493 1
   644    489    537 1
   645    490    494 1
   646    490    538 1
   647    491    495 1
   648    491    539 1
   649    492    496 1
   650    492    540 1
   651    493    497 1
   652    494    498 1
   653    495    499 1
   654    496    500 1
   655    497    501 1
   656    498    502 1
   657    499    503 1
   658    500    504 1
   659    501    505 1
   660    501    533 1
   661    502    506 1
   662    502    534 1
   663    503    507 1
   664    503    535 1
   665    504    508 1
   666    504    536 1
   667    505    509 1
   668    505    529 1
   669    506    510 1
   670    506    530 1
   671    507    511 1
   672    507    531 1
   673    508    512 1
   674    508    532 1
   675    509    513 1
   676    510    514 1
   677    511    515 1
   678    512    516 1
   679    513    517 1
   680    514    518 1
   681    515    519 1
   682    516    520 1
   683    517    521 1
   684    517    525 1
   685    518    522 1
   686    518    526 1
   687    519    523 1
   688    519    527 1
   689    520    524 1
   690    520    528 1
   691    521    710 1
   692    521    714 1
   693    522    711 1
   694    522    715 1
   695    523    712 1
   696    523    716 1
   697    524    713 1
   698    524    717 1
   699    525    529 1
   700    526    530 1
   701    527    531 1
   702    528    532 1
   703    533    537 1
   704    534    538 1
   705    535    539 1
   706    536    540 1
   707    541    545 1
   708    542    546 1
   709    543    549 1
   710    544    550 1
   711    553    561 1
   712    553    718 1
   713    553    726 1
   714    554    562 1
   715    554    719 1
   716    554    727 1
   717    555    563 1
   718    555    720 1
   719    555    728 1
   720    556    564 1
   721    556    721 1
   722    556    729 1
   723    557    565 1
   724    557    722 1
   725    557    730 1
   726    558    566 1
   727    558    723 1
   728    558    731 1
   729    559    567 1
   730    559    724 1
   731    559    732 1
   732    560    568 1
   733    560    725 1
   734    560    733 1
   735    561    569 1
   736    561    641 1
   737    562    570 1
   738    562    642 1
   739    563    571 1
   740    563    643 1
   741    564    572 1
   742    564    644 1
   743    565    573 1
   744    565    645 1
   745    566    574 1
   746    566    646 1
   747    567    575 1
   748    567    647 1
   749    568    576 1
   750    568    648 1
   751    569    577 1
   752    571    578 1
   753    573    579 1
   754    575    580 1
   755    577    581 1
   756    578    582 1
   757    579    583 1
   758    580    584 1
   759    581    585 1
   760    581    637 1
   761    582    586 1
   762    582    638 1
   763    583    587 1
   764    583    639 1
   765    584    588 1
   766    584    640 1
   767    585    589 1
   768    585    633 1
   769    586    590 1
   770    586    634 1
   771    587    591 1
   772    587    635 1
   773    588    592 1
   774    588    636 1
   775    589    593 1
   776    590    594 1
   777    591    595 1
   778    592    596 1
   779    593    597 1
   780    594    598 1
   781    595    599 1
   782    596    600 1
   783    597    601 1
   784    597    629 1
   785    598    602 1
   786    598    630 1
   787    599    603 1
   788    599    631 1
   789    600    604 1
   790    600    632 1
   791    601    605 1
   792    601    625 1
   793    602    606 1
   794    602    626 1
   795    603    607 1
   796    603    627 1
   797    604    608 1
   798    604    628 1
   799    605    609 1
   800    606    610 1
   801    607    611 1
   802    608    612 1
   803    609    613 1
   804    610    614 1
   805    611    615 1
   806    612    616 1
   807    613    617 1
   808    613    621 1
   809    614    618 1
   810    614    622 1
   811    615    619 1
   812    615    623 1
   813    616    620 1
   814    616    624 1
   815    617    734 1
   816    617    738 1
   817    618    735 1
   818    618    739 1
   819    619    736 1
   820    619    740 1
   821    620    737 1
   822    620    741 1
   823    621    625 1
   824    622    626 1
   825    623    627 1
   826    624    628 1
   827    629    633 1
   828    630    634 1
   829    631    635 1
   830    632    636 1
   831    637    641 1
   832    638    643 1
   833    639    645 1
   834    640    647 1
