tpdc_zn4o_pcu_ip2_off400
AtomForge visual export

741834  0  0  0  0            999 V2000
   11.6026    9.4892    9.5288 Zn  0  0  0  0  0  0  0  0  0  0  0  0
    9.4846   11.5974    9.5305 Zn  0  0  0  0  0  0  0  0  0  0  0  0
    9.4822    9.4877   11.5557 Zn  0  0  0  0  0  0  0  0  0  0  0  0
   11.6022   11.5977   11.5541 Zn  0  0  0  0  0  0  0  0  0  0  0  0
   -1.0500   -3.1642   -3.1199 Zn  0  0  0  0  0  0  0  0  0  0  0  0
   -1.0500   -3.1642   17.9661 Zn  0  0  0  0  0  0  0  0  0  0  0  0
   -1.0500   17.9218   -3.1199 Zn  0  0  0  0  0  0  0  0  0  0  0  0
   -1.0500   17.9218   17.9661 Zn  0  0  0  0  0  0  0  0  0  0  0  0
   20.0360   -3.1642   -3.1199 Zn  0  0  0  0  0  0  0  0  0  0  0  0
   20.0360   -3.1642   17.9661 Zn  0  0  0  0  0  0  0  0  0  0  0  0
   20.0360   17.9218   -3.1199 Zn  0  0  0  0  0  0  0  0  0  0  0  0
   20.0360   17.9218   17.9661 Zn  0  0  0  0  0  0  0  0  0  0  0  0
   -3.1695   -1.0543   -3.1216 Zn  0  0  0  0  0  0  0  0  0  0  0  0
   -3.1695   -1.0543   17.9644 Zn  0  0  0  0  0  0  0  0  0  0  0  0
   -3.1695   20.0317   -3.1216 Zn  0  0  0  0  0  0  0  0  0  0  0  0
   -3.1695   20.0317   17.9644 Zn  0  0  0  0  0  0  0  0  0  0  0  0
   17.9165   -1.0543   -3.1216 Zn  0  0  0  0  0  0  0  0  0  0  0  0
   17.9165   -1.0543   17.9644 Zn  0  0  0  0  0  0  0  0  0  0  0  0
   17.9165   20.0317   -3.1216 Zn  0  0  0  0  0  0  0  0  0  0  0  0
   17.9165   20.0317   17.9644 Zn  0  0  0  0  0  0  0  0  0  0  0  0
   -3.1670   -3.1630   -1.0968 Zn  0  0  0  0  0  0  0  0  0  0  0  0
   -3.1670   -3.1630   19.9892 Zn  0  0  0  0  0  0  0  0  0  0  0  0
   -3.1670   17.9230   -1.0968 Zn  0  0  0  0  0  0  0  0  0  0  0  0
   -3.1670   17.9230   19.9892 Zn  0  0  0  0  0  0  0  0  0  0  0  0
   17.9190   -3.1630   -1.0968 Zn  0  0  0  0  0  0  0  0  0  0  0  0
   17.9190   -3.1630   19.9892 Zn  0  0  0  0  0  0  0  0  0  0  0  0
   17.9190   17.9230   -1.0968 Zn  0  0  0  0  0  0  0  0  0  0  0  0
   17.9190   17.9230   19.9892 Zn  0  0  0  0  0  0  0  0  0  0  0  0
   -1.0491   -1.0543   -1.0947 Zn  0  0  0  0  0  0  0  0  0  0  0  0
   -1.0491   -1.0543   19.9913 Zn  0  0  0  0  0  0  0  0  0  0  0  0
   -1.0491   20.0317   -1.0947 Zn  0  0  0  0  0  0  0  0  0  0  0  0
   -1.0491   20.0317   19.9913 Zn  0  0  0  0  0  0  0  0  0  0  0  0
   20.0369   -1.0543   -1.0947 Zn  0  0  0  0  0  0  0  0  0  0  0  0
   20.0369   -1.0543   19.9913 Zn  0  0  0  0  0  0  0  0  0  0  0  0
   20.0369   20.0317   -1.0947 Zn  0  0  0  0  0  0  0  0  0  0  0  0
   20.0369   20.0317   19.9913 Zn  0  0  0  0  0  0  0  0  0  0  0  0
   15.5682   12.6772   10.6130 H   0  0  0  0  0  0  0  0  0  0  0  0
   -3.0695   12.6858   10.5598 H   0  0  0  0  0  0  0  0  0  0  0  0
   18.0165   12.6858   10.5598 H   0  0  0  0  0  0  0  0  0  0  0  0
   -1.1878    8.4028   10.5425 H   0  0  0  0  0  0  0  0  0  0  0  0
   19.8982    8.4028   10.5425 H   0  0  0  0  0  0  0  0  0  0  0  0
    1.1872    8.4025   10.5402 H   0  0  0  0  0  0  0  0  0  0  0  0
   22.2732    8.4025   10.5402 H   0  0  0  0  0  0  0  0  0  0  0  0
    3.0684    8.4017   10.5544 H   0  0  0  0  0  0  0  0  0  0  0  0
   24.1544    8.4017   10.5544 H   0  0  0  0  0  0  0  0  0  0  0  0
    5.5166    8.4092   10.6109 H   0  0  0  0  0  0  0  0  0  0  0  0
    5.5189   12.6747   10.4736 H   0  0  0  0  0  0  0  0  0  0  0  0
    3.0707   12.6853   10.5307 H   0  0  0  0  0  0  0  0  0  0  0  0
   24.1567   12.6853   10.5307 H   0  0  0  0  0  0  0  0  0  0  0  0
    1.1883   12.6861   10.5460 H   0  0  0  0  0  0  0  0  0  0  0  0
   22.2743   12.6861   10.5460 H   0  0  0  0  0  0  0  0  0  0  0  0
   -1.1871   12.6860   10.5460 H   0  0  0  0  0  0  0  0  0  0  0  0
   19.8989   12.6860   10.5460 H   0  0  0  0  0  0  0  0  0  0  0  0
   -3.0696    8.4026   10.5288 H   0  0  0  0  0  0  0  0  0  0  0  0
   18.0164    8.4026   10.5288 H   0  0  0  0  0  0  0  0  0  0  0  0
   15.5687    8.4116   10.4706 H   0  0  0  0  0  0  0  0  0  0  0  0
    8.4181   15.5437   10.4702 H   0  0  0  0  0  0  0  0  0  0  0  0
    8.4028   -3.0845   10.5272 H   0  0  0  0  0  0  0  0  0  0  0  0
    8.4028   18.0015   10.5272 H   0  0  0  0  0  0  0  0  0  0  0  0
   12.6845   -1.1877   10.5462 H   0  0  0  0  0  0  0  0  0  0  0  0
   12.6845   19.8983   10.5462 H   0  0  0  0  0  0  0  0  0  0  0  0
   12.6840    1.1870   10.5464 H   0  0  0  0  0  0  0  0  0  0  0  0
   12.6840   22.2730   10.5464 H   0  0  0  0  0  0  0  0  0  0  0  0
   12.6824    3.0822   10.5312 H   0  0  0  0  0  0  0  0  0  0  0  0
   12.6824   24.1682   10.5312 H   0  0  0  0  0  0  0  0  0  0  0  0
   12.6669    5.5420   10.4736 H   0  0  0  0  0  0  0  0  0  0  0  0
    8.4174    5.5420   10.6110 H   0  0  0  0  0  0  0  0  0  0  0  0
    8.4024    3.0825   10.5542 H   0  0  0  0  0  0  0  0  0  0  0  0
    8.4024   24.1685   10.5542 H   0  0  0  0  0  0  0  0  0  0  0  0
    8.4019    1.1873   10.5398 H   0  0  0  0  0  0  0  0  0  0  0  0
    8.4019   22.2733   10.5398 H   0  0  0  0  0  0  0  0  0  0  0  0
    8.4023   -1.1886   10.5420 H   0  0  0  0  0  0  0  0  0  0  0  0
    8.4023   19.8974   10.5420 H   0  0  0  0  0  0  0  0  0  0  0  0
   12.6840   -3.0837   10.5599 H   0  0  0  0  0  0  0  0  0  0  0  0
   12.6840   18.0023   10.5599 H   0  0  0  0  0  0  0  0  0  0  0  0
   12.6691   15.5450   10.6151 H   0  0  0  0  0  0  0  0  0  0  0  0
   10.4702    8.4081   15.5656 H   0  0  0  0  0  0  0  0  0  0  0  0
   10.5306    8.3963   -3.0857 H   0  0  0  0  0  0  0  0  0  0  0  0
   10.5306    8.3963   18.0003 H   0  0  0  0  0  0  0  0  0  0  0  0
   10.5471   12.6838   -1.1865 H   0  0  0  0  0  0  0  0  0  0  0  0
   10.5471   12.6838   19.8995 H   0  0  0  0  0  0  0  0  0  0  0  0
   10.5468   12.6840    1.1878 H   0  0  0  0  0  0  0  0  0  0  0  0
   10.5468   12.6840   22.2738 H   0  0  0  0  0  0  0  0  0  0  0  0
   10.5324   12.6919    3.0870 H   0  0  0  0  0  0  0  0  0  0  0  0
   10.5324   12.6919   24.1730 H   0  0  0  0  0  0  0  0  0  0  0  0
   10.4712   12.6792    5.5210 H   0  0  0  0  0  0  0  0  0  0  0  0
   10.6136    8.4067    5.5202 H   0  0  0  0  0  0  0  0  0  0  0  0
   10.5554    8.3953    3.0859 H   0  0  0  0  0  0  0  0  0  0  0  0
   10.5554    8.3953   24.1719 H   0  0  0  0  0  0  0  0  0  0  0  0
   10.5417    8.4045    1.1872 H   0  0  0  0  0  0  0  0  0  0  0  0
   10.5417    8.4045   22.2732 H   0  0  0  0  0  0  0  0  0  0  0  0
   10.5434    8.4046   -1.1869 H   0  0  0  0  0  0  0  0  0  0  0  0
   10.5434    8.4046   19.8991 H   0  0  0  0  0  0  0  0  0  0  0  0
   10.5601   12.6918   -3.0857 H   0  0  0  0  0  0  0  0  0  0  0  0
   10.5601   12.6918   18.0003 H   0  0  0  0  0  0  0  0  0  0  0  0
   10.6155   12.6802   15.5650 H   0  0  0  0  0  0  0  0  0  0  0  0
    2.9170    0.0239   -2.0364 H   0  0  0  0  0  0  0  0  0  0  0  0
    2.9170    0.0239   19.0496 H   0  0  0  0  0  0  0  0  0  0  0  0
    2.9170   21.1099   -2.0364 H   0  0  0  0  0  0  0  0  0  0  0  0
    2.9170   21.1099   19.0496 H   0  0  0  0  0  0  0  0  0  0  0  0
   24.0030    0.0239   -2.0364 H   0  0  0  0  0  0  0  0  0  0  0  0
   24.0030    0.0239   19.0496 H   0  0  0  0  0  0  0  0  0  0  0  0
   24.0030   21.1099   -2.0364 H   0  0  0  0  0  0  0  0  0  0  0  0
   24.0030   21.1099   19.0496 H   0  0  0  0  0  0  0  0  0  0  0  0
    5.3653    0.0324   -2.0932 H   0  0  0  0  0  0  0  0  0  0  0  0
    5.3653    0.0324   18.9928 H   0  0  0  0  0  0  0  0  0  0  0  0
    5.3653   21.1184   -2.0932 H   0  0  0  0  0  0  0  0  0  0  0  0
    5.3653   21.1184   18.9928 H   0  0  0  0  0  0  0  0  0  0  0  0
    7.2463   -4.2517   -2.1087 H   0  0  0  0  0  0  0  0  0  0  0  0
    7.2463   -4.2517   18.9773 H   0  0  0  0  0  0  0  0  0  0  0  0
    7.2463   16.8343   -2.1087 H   0  0  0  0  0  0  0  0  0  0  0  0
    7.2463   16.8343   18.9773 H   0  0  0  0  0  0  0  0  0  0  0  0
    9.6222   -4.2514   -2.1121 H   0  0  0  0  0  0  0  0  0  0  0  0
    9.6222   -4.2514   18.9739 H   0  0  0  0  0  0  0  0  0  0  0  0
    9.6222   16.8346   -2.1121 H   0  0  0  0  0  0  0  0  0  0  0  0
    9.6222   16.8346   18.9739 H   0  0  0  0  0  0  0  0  0  0  0  0
   11.5051   -4.2514   -2.0978 H   0  0  0  0  0  0  0  0  0  0  0  0
   11.5051   -4.2514   18.9882 H   0  0  0  0  0  0  0  0  0  0  0  0
   11.5051   16.8346   -2.0978 H   0  0  0  0  0  0  0  0  0  0  0  0
   11.5051   16.8346   18.9882 H   0  0  0  0  0  0  0  0  0  0  0  0
   13.9531   -4.2417   -2.0414 H   0  0  0  0  0  0  0  0  0  0  0  0
   13.9531   -4.2417   19.0446 H   0  0  0  0  0  0  0  0  0  0  0  0
   13.9531   16.8443   -2.0414 H   0  0  0  0  0  0  0  0  0  0  0  0
   13.9531   16.8443   19.0446 H   0  0  0  0  0  0  0  0  0  0  0  0
   13.9508    0.0242   -2.1768 H   0  0  0  0  0  0  0  0  0  0  0  0
   13.9508    0.0242   18.9092 H   0  0  0  0  0  0  0  0  0  0  0  0
   13.9508   21.1102   -2.1768 H   0  0  0  0  0  0  0  0  0  0  0  0
   13.9508   21.1102   18.9092 H   0  0  0  0  0  0  0  0  0  0  0  0
   11.5032    0.0320   -2.1208 H   0  0  0  0  0  0  0  0  0  0  0  0
   11.5032    0.0320   18.9652 H   0  0  0  0  0  0  0  0  0  0  0  0
   11.5032   21.1180   -2.1208 H   0  0  0  0  0  0  0  0  0  0  0  0
   11.5032   21.1180   18.9652 H   0  0  0  0  0  0  0  0  0  0  0  0
    9.6219    0.0317   -2.1077 H   0  0  0  0  0  0  0  0  0  0  0  0
    9.6219    0.0317   18.9783 H   0  0  0  0  0  0  0  0  0  0  0  0
    9.6219   21.1177   -2.1077 H   0  0  0  0  0  0  0  0  0  0  0  0
    9.6219   21.1177   18.9783 H   0  0  0  0  0  0  0  0  0  0  0  0
    7.2470    0.0318   -2.1074 H   0  0  0  0  0  0  0  0  0  0  0  0
    7.2470    0.0318   18.9786 H   0  0  0  0  0  0  0  0  0  0  0  0
    7.2470   21.1178   -2.1074 H   0  0  0  0  0  0  0  0  0  0  0  0
    7.2470   21.1178   18.9786 H   0  0  0  0  0  0  0  0  0  0  0  0
    5.3643   -4.2511   -2.1231 H   0  0  0  0  0  0  0  0  0  0  0  0
    5.3643   -4.2511   18.9629 H   0  0  0  0  0  0  0  0  0  0  0  0
    5.3643   16.8349   -2.1231 H   0  0  0  0  0  0  0  0  0  0  0  0
    5.3643   16.8349   18.9629 H   0  0  0  0  0  0  0  0  0  0  0  0
    2.9162   -4.2414   -2.1784 H   0  0  0  0  0  0  0  0  0  0  0  0
    2.9162   -4.2414   18.9076 H   0  0  0  0  0  0  0  0  0  0  0  0
    2.9162   16.8446   -2.1784 H   0  0  0  0  0  0  0  0  0  0  0  0
    2.9162   16.8446   18.9076 H   0  0  0  0  0  0  0  0  0  0  0  0
   24.0022   -4.2414   -2.1784 H   0  0  0  0  0  0  0  0  0  0  0  0
   24.0022   -4.2414   18.9076 H   0  0  0  0  0  0  0  0  0  0  0  0
   24.0022   16.8446   -2.1784 H   0  0  0  0  0  0  0  0  0  0  0  0
   24.0022   16.8446   18.9076 H   0  0  0  0  0  0  0  0  0  0  0  0
   -4.2334    2.8928   -2.1794 H   0  0  0  0  0  0  0  0  0  0  0  0
   -4.2334    2.8928   18.9066 H   0  0  0  0  0  0  0  0  0  0  0  0
   -4.2334   23.9788   -2.1794 H   0  0  0  0  0  0  0  0  0  0  0  0
   -4.2334   23.9788   18.9066 H   0  0  0  0  0  0  0  0  0  0  0  0
   16.8526    2.8928   -2.1794 H   0  0  0  0  0  0  0  0  0  0  0  0
   16.8526    2.8928   18.9066 H   0  0  0  0  0  0  0  0  0  0  0  0
   16.8526   23.9788   -2.1794 H   0  0  0  0  0  0  0  0  0  0  0  0
   16.8526   23.9788   18.9066 H   0  0  0  0  0  0  0  0  0  0  0  0
   -4.2482    5.3526   -2.1228 H   0  0  0  0  0  0  0  0  0  0  0  0
   -4.2482    5.3526   18.9632 H   0  0  0  0  0  0  0  0  0  0  0  0
   16.8378    5.3526   -2.1228 H   0  0  0  0  0  0  0  0  0  0  0  0
   16.8378    5.3526   18.9632 H   0  0  0  0  0  0  0  0  0  0  0  0
    0.0325    7.2469   -2.1070 H   0  0  0  0  0  0  0  0  0  0  0  0
    0.0325    7.2469   18.9790 H   0  0  0  0  0  0  0  0  0  0  0  0
   21.1185    7.2469   -2.1070 H   0  0  0  0  0  0  0  0  0  0  0  0
   21.1185    7.2469   18.9790 H   0  0  0  0  0  0  0  0  0  0  0  0
    0.0323    9.6227   -2.1070 H   0  0  0  0  0  0  0  0  0  0  0  0
    0.0323    9.6227   18.9790 H   0  0  0  0  0  0  0  0  0  0  0  0
   21.1183    9.6227   -2.1070 H   0  0  0  0  0  0  0  0  0  0  0  0
   21.1183    9.6227   18.9790 H   0  0  0  0  0  0  0  0  0  0  0  0
    0.0319   11.5181   -2.1211 H   0  0  0  0  0  0  0  0  0  0  0  0
    0.0319   11.5181   18.9649 H   0  0  0  0  0  0  0  0  0  0  0  0
   21.1179   11.5181   -2.1211 H   0  0  0  0  0  0  0  0  0  0  0  0
   21.1179   11.5181   18.9649 H   0  0  0  0  0  0  0  0  0  0  0  0
    0.0175   13.9760   -2.1771 H   0  0  0  0  0  0  0  0  0  0  0  0
    0.0175   13.9760   18.9089 H   0  0  0  0  0  0  0  0  0  0  0  0
   21.1035   13.9760   -2.1771 H   0  0  0  0  0  0  0  0  0  0  0  0
   21.1035   13.9760   18.9089 H   0  0  0  0  0  0  0  0  0  0  0  0
   -4.2338   13.9759   -2.0405 H   0  0  0  0  0  0  0  0  0  0  0  0
   -4.2338   13.9759   19.0455 H   0  0  0  0  0  0  0  0  0  0  0  0
   16.8522   13.9759   -2.0405 H   0  0  0  0  0  0  0  0  0  0  0  0
   16.8522   13.9759   19.0455 H   0  0  0  0  0  0  0  0  0  0  0  0
   -4.2494   11.5190   -2.0976 H   0  0  0  0  0  0  0  0  0  0  0  0
   -4.2494   11.5190   18.9884 H   0  0  0  0  0  0  0  0  0  0  0  0
   16.8366   11.5190   -2.0976 H   0  0  0  0  0  0  0  0  0  0  0  0
   16.8366   11.5190   18.9884 H   0  0  0  0  0  0  0  0  0  0  0  0
   -4.2498    9.6227   -2.1121 H   0  0  0  0  0  0  0  0  0  0  0  0
   -4.2498    9.6227   18.9739 H   0  0  0  0  0  0  0  0  0  0  0  0
   16.8362    9.6227   -2.1121 H   0  0  0  0  0  0  0  0  0  0  0  0
   16.8362    9.6227   18.9739 H   0  0  0  0  0  0  0  0  0  0  0  0
   -4.2495    7.2476   -2.1092 H   0  0  0  0  0  0  0  0  0  0  0  0
   -4.2495    7.2476   18.9768 H   0  0  0  0  0  0  0  0  0  0  0  0
   16.8365    7.2476   -2.1092 H   0  0  0  0  0  0  0  0  0  0  0  0
   16.8365    7.2476   18.9768 H   0  0  0  0  0  0  0  0  0  0  0  0
    0.0317    5.3515   -2.0924 H   0  0  0  0  0  0  0  0  0  0  0  0
    0.0317    5.3515   18.9936 H   0  0  0  0  0  0  0  0  0  0  0  0
   21.1177    5.3515   -2.0924 H   0  0  0  0  0  0  0  0  0  0  0  0
   21.1177    5.3515   18.9936 H   0  0  0  0  0  0  0  0  0  0  0  0
    0.0160    2.8920   -2.0362 H   0  0  0  0  0  0  0  0  0  0  0  0
    0.0160    2.8920   19.0498 H   0  0  0  0  0  0  0  0  0  0  0  0
    0.0160   23.9780   -2.0362 H   0  0  0  0  0  0  0  0  0  0  0  0
    0.0160   23.9780   19.0498 H   0  0  0  0  0  0  0  0  0  0  0  0
   21.1020    2.8920   -2.0362 H   0  0  0  0  0  0  0  0  0  0  0  0
   21.1020    2.8920   19.0498 H   0  0  0  0  0  0  0  0  0  0  0  0
   21.1020   23.9780   -2.0362 H   0  0  0  0  0  0  0  0  0  0  0  0
   21.1020   23.9780   19.0498 H   0  0  0  0  0  0  0  0  0  0  0  0
   -2.1812   -4.2449    2.9133 H   0  0  0  0  0  0  0  0  0  0  0  0
   -2.1812   -4.2449   23.9993 H   0  0  0  0  0  0  0  0  0  0  0  0
   -2.1812   16.8411    2.9133 H   0  0  0  0  0  0  0  0  0  0  0  0
   -2.1812   16.8411   23.9993 H   0  0  0  0  0  0  0  0  0  0  0  0
   18.9048   -4.2449    2.9133 H   0  0  0  0  0  0  0  0  0  0  0  0
   18.9048   -4.2449   23.9993 H   0  0  0  0  0  0  0  0  0  0  0  0
   18.9048   16.8411    2.9133 H   0  0  0  0  0  0  0  0  0  0  0  0
   18.9048   16.8411   23.9993 H   0  0  0  0  0  0  0  0  0  0  0  0
   -2.1239   -4.2575    5.3473 H   0  0  0  0  0  0  0  0  0  0  0  0
   -2.1239   16.8285    5.3473 H   0  0  0  0  0  0  0  0  0  0  0  0
   18.9621   -4.2575    5.3473 H   0  0  0  0  0  0  0  0  0  0  0  0
   18.9621   16.8285    5.3473 H   0  0  0  0  0  0  0  0  0  0  0  0
   -2.1088    0.0299    7.2472 H   0  0  0  0  0  0  0  0  0  0  0  0
   -2.1088   21.1159    7.2472 H   0  0  0  0  0  0  0  0  0  0  0  0
   18.9772    0.0299    7.2472 H   0  0  0  0  0  0  0  0  0  0  0  0
   18.9772   21.1159    7.2472 H   0  0  0  0  0  0  0  0  0  0  0  0
   -2.1086    0.0298    9.6211 H   0  0  0  0  0  0  0  0  0  0  0  0
   -2.1086   21.1158    9.6211 H   0  0  0  0  0  0  0  0  0  0  0  0
   18.9774    0.0298    9.6211 H   0  0  0  0  0  0  0  0  0  0  0  0
   18.9774   21.1158    9.6211 H   0  0  0  0  0  0  0  0  0  0  0  0
   -2.1211    0.0380   11.5200 H   0  0  0  0  0  0  0  0  0  0  0  0
   -2.1211   21.1240   11.5200 H   0  0  0  0  0  0  0  0  0  0  0  0
   18.9649    0.0380   11.5200 H   0  0  0  0  0  0  0  0  0  0  0  0
   18.9649   21.1240   11.5200 H   0  0  0  0  0  0  0  0  0  0  0  0
   -2.1794    0.0263   13.9548 H   0  0  0  0  0  0  0  0  0  0  0  0
   -2.1794   21.1123   13.9548 H   0  0  0  0  0  0  0  0  0  0  0  0
   18.9066    0.0263   13.9548 H   0  0  0  0  0  0  0  0  0  0  0  0
   18.9066   21.1123   13.9548 H   0  0  0  0  0  0  0  0  0  0  0  0
   -2.0401   -4.2461   13.9555 H   0  0  0  0  0  0  0  0  0  0  0  0
   -2.0401   16.8399   13.9555 H   0  0  0  0  0  0  0  0  0  0  0  0
   19.0459   -4.2461   13.9555 H   0  0  0  0  0  0  0  0  0  0  0  0
   19.0459   16.8399   13.9555 H   0  0  0  0  0  0  0  0  0  0  0  0
   -2.0997   -4.2577   11.5206 H   0  0  0  0  0  0  0  0  0  0  0  0
   -2.0997   16.8283   11.5206 H   0  0  0  0  0  0  0  0  0  0  0  0
   18.9863   -4.2577   11.5206 H   0  0  0  0  0  0  0  0  0  0  0  0
   18.9863   16.8283   11.5206 H   0  0  0  0  0  0  0  0  0  0  0  0
   -2.1129   -4.2493    9.6213 H   0  0  0  0  0  0  0  0  0  0  0  0
   -2.1129   16.8367    9.6213 H   0  0  0  0  0  0  0  0  0  0  0  0
   18.9731   -4.2493    9.6213 H   0  0  0  0  0  0  0  0  0  0  0  0
   18.9731   16.8367    9.6213 H   0  0  0  0  0  0  0  0  0  0  0  0
   -2.1100   -4.2496    7.2466 H   0  0  0  0  0  0  0  0  0  0  0  0
   -2.1100   16.8364    7.2466 H   0  0  0  0  0  0  0  0  0  0  0  0
   18.9760   -4.2496    7.2466 H   0  0  0  0  0  0  0  0  0  0  0  0
   18.9760   16.8364    7.2466 H   0  0  0  0  0  0  0  0  0  0  0  0
   -2.0950    0.0390    5.3483 H   0  0  0  0  0  0  0  0  0  0  0  0
   -2.0950   21.1250    5.3483 H   0  0  0  0  0  0  0  0  0  0  0  0
   18.9910    0.0390    5.3483 H   0  0  0  0  0  0  0  0  0  0  0  0
   18.9910   21.1250    5.3483 H   0  0  0  0  0  0  0  0  0  0  0  0
   -2.0346    0.0275    2.9141 H   0  0  0  0  0  0  0  0  0  0  0  0
   -2.0346    0.0275   24.0001 H   0  0  0  0  0  0  0  0  0  0  0  0
   -2.0346   21.1135    2.9141 H   0  0  0  0  0  0  0  0  0  0  0  0
   -2.0346   21.1135   24.0001 H   0  0  0  0  0  0  0  0  0  0  0  0
   19.0514    0.0275    2.9141 H   0  0  0  0  0  0  0  0  0  0  0  0
   19.0514    0.0275   24.0001 H   0  0  0  0  0  0  0  0  0  0  0  0
   19.0514   21.1135    2.9141 H   0  0  0  0  0  0  0  0  0  0  0  0
   19.0514   21.1135   24.0001 H   0  0  0  0  0  0  0  0  0  0  0  0
   13.9610   10.5429   10.5429 C   0  0  0  0  0  0  0  0  0  0  0  0
   15.4328   10.5443   10.5415 C   0  0  0  0  0  0  0  0  0  0  0  0
   16.1219   11.7506   10.5808 C   0  0  0  0  0  0  0  0  0  0  0  0
   -3.5897   11.7436   10.5589 C   0  0  0  0  0  0  0  0  0  0  0  0
   17.4963   11.7436   10.5589 C   0  0  0  0  0  0  0  0  0  0  0  0
   -2.8725   10.5445   10.5432 C   0  0  0  0  0  0  0  0  0  0  0  0
   18.2135   10.5445   10.5432 C   0  0  0  0  0  0  0  0  0  0  0  0
   -1.4124   10.5446   10.5436 C   0  0  0  0  0  0  0  0  0  0  0  0
   19.6736   10.5446   10.5436 C   0  0  0  0  0  0  0  0  0  0  0  0
   -0.6861    9.3544   10.5424 C   0  0  0  0  0  0  0  0  0  0  0  0
   20.3999    9.3544   10.5424 C   0  0  0  0  0  0  0  0  0  0  0  0
    0.6860    9.3544   10.5416 C   0  0  0  0  0  0  0  0  0  0  0  0
   21.7720    9.3544   10.5416 C   0  0  0  0  0  0  0  0  0  0  0  0
    1.4126   10.5443   10.5426 C   0  0  0  0  0  0  0  0  0  0  0  0
   22.4986   10.5443   10.5426 C   0  0  0  0  0  0  0  0  0  0  0  0
    2.8727   10.5436   10.5425 C   0  0  0  0  0  0  0  0  0  0  0  0
   23.9587   10.5436   10.5425 C   0  0  0  0  0  0  0  0  0  0  0  0
    3.5889    9.3439   10.5570 C   0  0  0  0  0  0  0  0  0  0  0  0
   24.6749    9.3439   10.5570 C   0  0  0  0  0  0  0  0  0  0  0  0
    4.9633    9.3360   10.5798 C   0  0  0  0  0  0  0  0  0  0  0  0
    5.6533   10.5420   10.5425 C   0  0  0  0  0  0  0  0  0  0  0  0
    7.1249   10.5407   10.5437 C   0  0  0  0  0  0  0  0  0  0  0  0
    4.9645   11.7486   10.5046 C   0  0  0  0  0  0  0  0  0  0  0  0
    3.5901   11.7427   10.5279 C   0  0  0  0  0  0  0  0  0  0  0  0
   24.6761   11.7427   10.5279 C   0  0  0  0  0  0  0  0  0  0  0  0
    0.6865   11.7346   10.5440 C   0  0  0  0  0  0  0  0  0  0  0  0
   21.7725   11.7346   10.5440 C   0  0  0  0  0  0  0  0  0  0  0  0
   -0.6856   11.7344   10.5444 C   0  0  0  0  0  0  0  0  0  0  0  0
   20.4004   11.7344   10.5444 C   0  0  0  0  0  0  0  0  0  0  0  0
   -3.5893    9.3452   10.5267 C   0  0  0  0  0  0  0  0  0  0  0  0
   17.4967    9.3452   10.5267 C   0  0  0  0  0  0  0  0  0  0  0  0
   16.1223    9.3381   10.5029 C   0  0  0  0  0  0  0  0  0  0  0  0
   10.5431   13.9518   10.5445 C   0  0  0  0  0  0  0  0  0  0  0  0
   10.5435   15.4224   10.5435 C   0  0  0  0  0  0  0  0  0  0  0  0
    9.3386   16.1076   10.5021 C   0  0  0  0  0  0  0  0  0  0  0  0
    9.3457   -3.6027   10.5269 C   0  0  0  0  0  0  0  0  0  0  0  0
    9.3457   17.4833   10.5269 C   0  0  0  0  0  0  0  0  0  0  0  0
   10.5433   -2.8815   10.5437 C   0  0  0  0  0  0  0  0  0  0  0  0
   10.5433   18.2045   10.5437 C   0  0  0  0  0  0  0  0  0  0  0  0
   10.5432   -1.4169   10.5436 C   0  0  0  0  0  0  0  0  0  0  0  0
   10.5432   19.6691   10.5436 C   0  0  0  0  0  0  0  0  0  0  0  0
   11.7320   -0.6874   10.5446 C   0  0  0  0  0  0  0  0  0  0  0  0
   11.7320   20.3986   10.5446 C   0  0  0  0  0  0  0  0  0  0  0  0
   11.7316    0.6864   10.5444 C   0  0  0  0  0  0  0  0  0  0  0  0
   11.7316   21.7724   10.5444 C   0  0  0  0  0  0  0  0  0  0  0  0
   10.5428    1.4159   10.5427 C   0  0  0  0  0  0  0  0  0  0  0  0
   10.5428   22.5019   10.5427 C   0  0  0  0  0  0  0  0  0  0  0  0
   10.5424    2.8803   10.5424 C   0  0  0  0  0  0  0  0  0  0  0  0
   10.5424   23.9663   10.5424 C   0  0  0  0  0  0  0  0  0  0  0  0
   11.7400    3.6016   10.5281 C   0  0  0  0  0  0  0  0  0  0  0  0
   11.7400   24.6876   10.5281 C   0  0  0  0  0  0  0  0  0  0  0  0
   11.7468    4.9773   10.5034 C   0  0  0  0  0  0  0  0  0  0  0  0
   10.5422    5.6629   10.5428 C   0  0  0  0  0  0  0  0  0  0  0  0
   10.5429    7.1336   10.5449 C   0  0  0  0  0  0  0  0  0  0  0  0
    9.3376    4.9774   10.5813 C   0  0  0  0  0  0  0  0  0  0  0  0
    9.3449    3.6017   10.5564 C   0  0  0  0  0  0  0  0  0  0  0  0
    9.3449   24.6877   10.5564 C   0  0  0  0  0  0  0  0  0  0  0  0
    9.3541    0.6862   10.5416 C   0  0  0  0  0  0  0  0  0  0  0  0
    9.3541   21.7722   10.5416 C   0  0  0  0  0  0  0  0  0  0  0  0
    9.3543   -0.6875   10.5423 C   0  0  0  0  0  0  0  0  0  0  0  0
    9.3543   20.3985   10.5423 C   0  0  0  0  0  0  0  0  0  0  0  0
   11.7410   -3.6022   10.5599 C   0  0  0  0  0  0  0  0  0  0  0  0
   11.7410   17.4838   10.5599 C   0  0  0  0  0  0  0  0  0  0  0  0
   11.7481   16.1081   10.5842 C   0  0  0  0  0  0  0  0  0  0  0  0
   10.5415   10.5427   13.9327 C   0  0  0  0  0  0  0  0  0  0  0  0
   10.5421   10.5441   15.4147 C   0  0  0  0  0  0  0  0  0  0  0  0
   10.5026    9.3407   16.1096 C   0  0  0  0  0  0  0  0  0  0  0  0
   10.5283    9.3451   -3.5993 C   0  0  0  0  0  0  0  0  0  0  0  0
   10.5283    9.3451   17.4867 C   0  0  0  0  0  0  0  0  0  0  0  0
   10.5447   10.5443   -2.8800 C   0  0  0  0  0  0  0  0  0  0  0  0
   10.5447   10.5443   18.2060 C   0  0  0  0  0  0  0  0  0  0  0  0
   10.5450   10.5444   -1.4169 C   0  0  0  0  0  0  0  0  0  0  0  0
   10.5450   10.5444   19.6691 C   0  0  0  0  0  0  0  0  0  0  0  0
   10.5457   11.7318   -0.6857 C   0  0  0  0  0  0  0  0  0  0  0  0
   10.5457   11.7318   20.4003 C   0  0  0  0  0  0  0  0  0  0  0  0
   10.5451   11.7320    0.6874 C   0  0  0  0  0  0  0  0  0  0  0  0
   10.5451   11.7320   21.7734 C   0  0  0  0  0  0  0  0  0  0  0  0
   10.5437   10.5442    1.4179 C   0  0  0  0  0  0  0  0  0  0  0  0
   10.5437   10.5442   22.5039 C   0  0  0  0  0  0  0  0  0  0  0  0
   10.5432   10.5438    2.8809 C   0  0  0  0  0  0  0  0  0  0  0  0
   10.5432   10.5438   23.9669 C   0  0  0  0  0  0  0  0  0  0  0  0
   10.5281   11.7431    3.6001 C   0  0  0  0  0  0  0  0  0  0  0  0
   10.5281   11.7431   24.6861 C   0  0  0  0  0  0  0  0  0  0  0  0
   10.5024   11.7466    4.9773 C   0  0  0  0  0  0  0  0  0  0  0  0
   10.5420   10.5428    5.6716 C   0  0  0  0  0  0  0  0  0  0  0  0
   10.5424   10.5416    7.1533 C   0  0  0  0  0  0  0  0  0  0  0  0
   10.5821    9.3394    4.9766 C   0  0  0  0  0  0  0  0  0  0  0  0
   10.5578    9.3442    3.5995 C   0  0  0  0  0  0  0  0  0  0  0  0
   10.5578    9.3442   24.6855 C   0  0  0  0  0  0  0  0  0  0  0  0
   10.5431    9.3567    0.6870 C   0  0  0  0  0  0  0  0  0  0  0  0
   10.5431    9.3567   21.7730 C   0  0  0  0  0  0  0  0  0  0  0  0
   10.5438    9.3568   -0.6862 C   0  0  0  0  0  0  0  0  0  0  0  0
   10.5438    9.3568   20.3998 C   0  0  0  0  0  0  0  0  0  0  0  0
   10.5604   11.7433   -3.5998 C   0  0  0  0  0  0  0  0  0  0  0  0
   10.5604   11.7433   17.4862 C   0  0  0  0  0  0  0  0  0  0  0  0
   10.5836   11.7477   16.1091 C   0  0  0  0  0  0  0  0  0  0  0  0
    1.3093   -2.1073   -2.1091 C   0  0  0  0  0  0  0  0  0  0  0  0
    1.3093   -2.1073   18.9769 C   0  0  0  0  0  0  0  0  0  0  0  0
    1.3093   18.9787   -2.1091 C   0  0  0  0  0  0  0  0  0  0  0  0
    1.3093   18.9787   18.9769 C   0  0  0  0  0  0  0  0  0  0  0  0
   22.3953   -2.1073   -2.1091 C   0  0  0  0  0  0  0  0  0  0  0  0
   22.3953   -2.1073   18.9769 C   0  0  0  0  0  0  0  0  0  0  0  0
   22.3953   18.9787   -2.1091 C   0  0  0  0  0  0  0  0  0  0  0  0
   22.3953   18.9787   18.9769 C   0  0  0  0  0  0  0  0  0  0  0  0
    2.7810   -2.1086   -2.1074 C   0  0  0  0  0  0  0  0  0  0  0  0
    2.7810   -2.1086   18.9786 C   0  0  0  0  0  0  0  0  0  0  0  0
    2.7810   18.9774   -2.1074 C   0  0  0  0  0  0  0  0  0  0  0  0
    2.7810   18.9774   18.9786 C   0  0  0  0  0  0  0  0  0  0  0  0
   23.8670   -2.1086   -2.1074 C   0  0  0  0  0  0  0  0  0  0  0  0
   23.8670   -2.1086   18.9786 C   0  0  0  0  0  0  0  0  0  0  0  0
   23.8670   18.9774   -2.1074 C   0  0  0  0  0  0  0  0  0  0  0  0
   23.8670   18.9774   18.9786 C   0  0  0  0  0  0  0  0  0  0  0  0
    3.4708   -0.9025   -2.0683 C   0  0  0  0  0  0  0  0  0  0  0  0
    3.4708   -0.9025   19.0177 C   0  0  0  0  0  0  0  0  0  0  0  0
    3.4708   20.1835   -2.0683 C   0  0  0  0  0  0  0  0  0  0  0  0
    3.4708   20.1835   19.0177 C   0  0  0  0  0  0  0  0  0  0  0  0
   24.5568   -0.9025   -2.0683 C   0  0  0  0  0  0  0  0  0  0  0  0
   24.5568   -0.9025   19.0177 C   0  0  0  0  0  0  0  0  0  0  0  0
   24.5568   20.1835   -2.0683 C   0  0  0  0  0  0  0  0  0  0  0  0
   24.5568   20.1835   19.0177 C   0  0  0  0  0  0  0  0  0  0  0  0
    4.8452   -0.9100   -2.0914 C   0  0  0  0  0  0  0  0  0  0  0  0
    4.8452   -0.9100   18.9946 C   0  0  0  0  0  0  0  0  0  0  0  0
    4.8452   20.1760   -2.0914 C   0  0  0  0  0  0  0  0  0  0  0  0
    4.8452   20.1760   18.9946 C   0  0  0  0  0  0  0  0  0  0  0  0
    5.5617   -2.1095   -2.1074 C   0  0  0  0  0  0  0  0  0  0  0  0
    5.5617   -2.1095   18.9786 C   0  0  0  0  0  0  0  0  0  0  0  0
    5.5617   18.9765   -2.1074 C   0  0  0  0  0  0  0  0  0  0  0  0
    5.5617   18.9765   18.9786 C   0  0  0  0  0  0  0  0  0  0  0  0
    7.0218   -2.1099   -2.1079 C   0  0  0  0  0  0  0  0  0  0  0  0
    7.0218   -2.1099   18.9781 C   0  0  0  0  0  0  0  0  0  0  0  0
    7.0218   18.9761   -2.1079 C   0  0  0  0  0  0  0  0  0  0  0  0
    7.0218   18.9761   18.9781 C   0  0  0  0  0  0  0  0  0  0  0  0
    7.7480   -3.3001   -2.1088 C   0  0  0  0  0  0  0  0  0  0  0  0
    7.7480   -3.3001   18.9772 C   0  0  0  0  0  0  0  0  0  0  0  0
    7.7480   17.7859   -2.1088 C   0  0  0  0  0  0  0  0  0  0  0  0
    7.7480   17.7859   18.9772 C   0  0  0  0  0  0  0  0  0  0  0  0
    9.1202   -3.2999   -2.1097 C   0  0  0  0  0  0  0  0  0  0  0  0
    9.1202   -3.2999   18.9763 C   0  0  0  0  0  0  0  0  0  0  0  0
    9.1202   17.7861   -2.1097 C   0  0  0  0  0  0  0  0  0  0  0  0
    9.1202   17.7861   18.9763 C   0  0  0  0  0  0  0  0  0  0  0  0
    9.8469   -2.1100   -2.1090 C   0  0  0  0  0  0  0  0  0  0  0  0
    9.8469   -2.1100   18.9770 C   0  0  0  0  0  0  0  0  0  0  0  0
    9.8469   18.9760   -2.1090 C   0  0  0  0  0  0  0  0  0  0  0  0
    9.8469   18.9760   18.9770 C   0  0  0  0  0  0  0  0  0  0  0  0
   11.3071   -2.1099   -2.1092 C   0  0  0  0  0  0  0  0  0  0  0  0
   11.3071   -2.1099   18.9768 C   0  0  0  0  0  0  0  0  0  0  0  0
   11.3071   18.9761   -2.1092 C   0  0  0  0  0  0  0  0  0  0  0  0
   11.3071   18.9761   18.9768 C   0  0  0  0  0  0  0  0  0  0  0  0
   12.0246   -3.3087   -2.0947 C   0  0  0  0  0  0  0  0  0  0  0  0
   12.0246   -3.3087   18.9913 C   0  0  0  0  0  0  0  0  0  0  0  0
   12.0246   17.7773   -2.0947 C   0  0  0  0  0  0  0  0  0  0  0  0
   12.0246   17.7773   18.9913 C   0  0  0  0  0  0  0  0  0  0  0  0
   13.3990   -3.3154   -2.0716 C   0  0  0  0  0  0  0  0  0  0  0  0
   13.3990   -3.3154   19.0144 C   0  0  0  0  0  0  0  0  0  0  0  0
   13.3990   17.7706   -2.0716 C   0  0  0  0  0  0  0  0  0  0  0  0
   13.3990   17.7706   19.0144 C   0  0  0  0  0  0  0  0  0  0  0  0
   14.0876   -2.1087   -2.1091 C   0  0  0  0  0  0  0  0  0  0  0  0
   14.0876   -2.1087   18.9769 C   0  0  0  0  0  0  0  0  0  0  0  0
   14.0876   18.9773   -2.1091 C   0  0  0  0  0  0  0  0  0  0  0  0
   14.0876   18.9773   18.9769 C   0  0  0  0  0  0  0  0  0  0  0  0
   15.5594   -2.1073   -2.1093 C   0  0  0  0  0  0  0  0  0  0  0  0
   15.5594   -2.1073   18.9767 C   0  0  0  0  0  0  0  0  0  0  0  0
   15.5594   18.9787   -2.1093 C   0  0  0  0  0  0  0  0  0  0  0  0
   15.5594   18.9787   18.9767 C   0  0  0  0  0  0  0  0  0  0  0  0
   13.3977   -0.9027   -2.1462 C   0  0  0  0  0  0  0  0  0  0  0  0
   13.3977   -0.9027   18.9398 C   0  0  0  0  0  0  0  0  0  0  0  0
   13.3977   20.1833   -2.1462 C   0  0  0  0  0  0  0  0  0  0  0  0
   13.3977   20.1833   18.9398 C   0  0  0  0  0  0  0  0  0  0  0  0
   12.0234   -0.9103   -2.1234 C   0  0  0  0  0  0  0  0  0  0  0  0
   12.0234   -0.9103   18.9626 C   0  0  0  0  0  0  0  0  0  0  0  0
   12.0234   20.1757   -2.1234 C   0  0  0  0  0  0  0  0  0  0  0  0
   12.0234   20.1757   18.9626 C   0  0  0  0  0  0  0  0  0  0  0  0
    9.1205   -0.9200   -2.1081 C   0  0  0  0  0  0  0  0  0  0  0  0
    9.1205   -0.9200   18.9779 C   0  0  0  0  0  0  0  0  0  0  0  0
    9.1205   20.1660   -2.1081 C   0  0  0  0  0  0  0  0  0  0  0  0
    9.1205   20.1660   18.9779 C   0  0  0  0  0  0  0  0  0  0  0  0
    7.7484   -0.9199   -2.1077 C   0  0  0  0  0  0  0  0  0  0  0  0
    7.7484   -0.9199   18.9783 C   0  0  0  0  0  0  0  0  0  0  0  0
    7.7484   20.1661   -2.1077 C   0  0  0  0  0  0  0  0  0  0  0  0
    7.7484   20.1661   18.9783 C   0  0  0  0  0  0  0  0  0  0  0  0
    4.8445   -3.3087   -2.1234 C   0  0  0  0  0  0  0  0  0  0  0  0
    4.8445   -3.3087   18.9626 C   0  0  0  0  0  0  0  0  0  0  0  0
    4.8445   17.7773   -2.1234 C   0  0  0  0  0  0  0  0  0  0  0  0
    4.8445   17.7773   18.9626 C   0  0  0  0  0  0  0  0  0  0  0  0
    3.4700   -3.3150   -2.1461 C   0  0  0  0  0  0  0  0  0  0  0  0
    3.4700   -3.3150   18.9399 C   0  0  0  0  0  0  0  0  0  0  0  0
    3.4700   17.7710   -2.1461 C   0  0  0  0  0  0  0  0  0  0  0  0
    3.4700   17.7710   18.9399 C   0  0  0  0  0  0  0  0  0  0  0  0
   24.5560   -3.3150   -2.1461 C   0  0  0  0  0  0  0  0  0  0  0  0
   24.5560   -3.3150   18.9399 C   0  0  0  0  0  0  0  0  0  0  0  0
   24.5560   17.7710   -2.1461 C   0  0  0  0  0  0  0  0  0  0  0  0
   24.5560   17.7710   18.9399 C   0  0  0  0  0  0  0  0  0  0  0  0
   -2.1086    1.3007   -2.1101 C   0  0  0  0  0  0  0  0  0  0  0  0
   -2.1086    1.3007   18.9759 C   0  0  0  0  0  0  0  0  0  0  0  0
   -2.1086   22.3867   -2.1101 C   0  0  0  0  0  0  0  0  0  0  0  0
   -2.1086   22.3867   18.9759 C   0  0  0  0  0  0  0  0  0  0  0  0
   18.9774    1.3007   -2.1101 C   0  0  0  0  0  0  0  0  0  0  0  0
   18.9774    1.3007   18.9759 C   0  0  0  0  0  0  0  0  0  0  0  0
   18.9774   22.3867   -2.1101 C   0  0  0  0  0  0  0  0  0  0  0  0
   18.9774   22.3867   18.9759 C   0  0  0  0  0  0  0  0  0  0  0  0
   -2.1087    2.7715   -2.1088 C   0  0  0  0  0  0  0  0  0  0  0  0
   -2.1087    2.7715   18.9772 C   0  0  0  0  0  0  0  0  0  0  0  0
   -2.1087   23.8575   -2.1088 C   0  0  0  0  0  0  0  0  0  0  0  0
   -2.1087   23.8575   18.9772 C   0  0  0  0  0  0  0  0  0  0  0  0
   18.9773    2.7715   -2.1088 C   0  0  0  0  0  0  0  0  0  0  0  0
   18.9773    2.7715   18.9772 C   0  0  0  0  0  0  0  0  0  0  0  0
   18.9773   23.8575   -2.1088 C   0  0  0  0  0  0  0  0  0  0  0  0
   18.9773   23.8575   18.9772 C   0  0  0  0  0  0  0  0  0  0  0  0
   -3.3132    3.4573   -2.1486 C   0  0  0  0  0  0  0  0  0  0  0  0
   -3.3132    3.4573   18.9374 C   0  0  0  0  0  0  0  0  0  0  0  0
   -3.3132   24.5433   -2.1486 C   0  0  0  0  0  0  0  0  0  0  0  0
   -3.3132   24.5433   18.9374 C   0  0  0  0  0  0  0  0  0  0  0  0
   17.7728    3.4573   -2.1486 C   0  0  0  0  0  0  0  0  0  0  0  0
   17.7728    3.4573   18.9374 C   0  0  0  0  0  0  0  0  0  0  0  0
   17.7728   24.5433   -2.1486 C   0  0  0  0  0  0  0  0  0  0  0  0
   17.7728   24.5433   18.9374 C   0  0  0  0  0  0  0  0  0  0  0  0
   -3.3059    4.8329   -2.1236 C   0  0  0  0  0  0  0  0  0  0  0  0
   -3.3059    4.8329   18.9624 C   0  0  0  0  0  0  0  0  0  0  0  0
   17.7801    4.8329   -2.1236 C   0  0  0  0  0  0  0  0  0  0  0  0
   17.7801    4.8329   18.9624 C   0  0  0  0  0  0  0  0  0  0  0  0
   -2.1083    5.5541   -2.1077 C   0  0  0  0  0  0  0  0  0  0  0  0
   -2.1083    5.5541   18.9783 C   0  0  0  0  0  0  0  0  0  0  0  0
   18.9777    5.5541   -2.1077 C   0  0  0  0  0  0  0  0  0  0  0  0
   18.9777    5.5541   18.9783 C   0  0  0  0  0  0  0  0  0  0  0  0
   -2.1084    7.0185   -2.1079 C   0  0  0  0  0  0  0  0  0  0  0  0
   -2.1084    7.0185   18.9781 C   0  0  0  0  0  0  0  0  0  0  0  0
   18.9776    7.0185   -2.1079 C   0  0  0  0  0  0  0  0  0  0  0  0
   18.9776    7.0185   18.9781 C   0  0  0  0  0  0  0  0  0  0  0  0
   -0.9196    7.7481   -2.1075 C   0  0  0  0  0  0  0  0  0  0  0  0
   -0.9196    7.7481   18.9785 C   0  0  0  0  0  0  0  0  0  0  0  0
   20.1664    7.7481   -2.1075 C   0  0  0  0  0  0  0  0  0  0  0  0
   20.1664    7.7481   18.9785 C   0  0  0  0  0  0  0  0  0  0  0  0
   -0.9198    9.1218   -2.1078 C   0  0  0  0  0  0  0  0  0  0  0  0
   -0.9198    9.1218   18.9782 C   0  0  0  0  0  0  0  0  0  0  0  0
   20.1662    9.1218   -2.1078 C   0  0  0  0  0  0  0  0  0  0  0  0
   20.1662    9.1218   18.9782 C   0  0  0  0  0  0  0  0  0  0  0  0
   -2.1086    9.8513   -2.1091 C   0  0  0  0  0  0  0  0  0  0  0  0
   -2.1086    9.8513   18.9769 C   0  0  0  0  0  0  0  0  0  0  0  0
   18.9774    9.8513   -2.1091 C   0  0  0  0  0  0  0  0  0  0  0  0
   18.9774    9.8513   18.9769 C   0  0  0  0  0  0  0  0  0  0  0  0
   -2.1086   11.3159   -2.1092 C   0  0  0  0  0  0  0  0  0  0  0  0
   -2.1086   11.3159   18.9768 C   0  0  0  0  0  0  0  0  0  0  0  0
   18.9774   11.3159   -2.1092 C   0  0  0  0  0  0  0  0  0  0  0  0
   18.9774   11.3159   18.9768 C   0  0  0  0  0  0  0  0  0  0  0  0
   -0.9108   12.0367   -2.1233 C   0  0  0  0  0  0  0  0  0  0  0  0
   -0.9108   12.0367   18.9627 C   0  0  0  0  0  0  0  0  0  0  0  0
   20.1752   12.0367   -2.1233 C   0  0  0  0  0  0  0  0  0  0  0  0
   20.1752   12.0367   18.9627 C   0  0  0  0  0  0  0  0  0  0  0  0
   -0.9033   13.4125   -2.1478 C   0  0  0  0  0  0  0  0  0  0  0  0
   -0.9033   13.4125   18.9382 C   0  0  0  0  0  0  0  0  0  0  0  0
   20.1827   13.4125   -2.1478 C   0  0  0  0  0  0  0  0  0  0  0  0
   20.1827   13.4125   18.9382 C   0  0  0  0  0  0  0  0  0  0  0  0
   -2.1081   14.0979   -2.1092 C   0  0  0  0  0  0  0  0  0  0  0  0
   -2.1081   14.0979   18.9768 C   0  0  0  0  0  0  0  0  0  0  0  0
   18.9779   14.0979   -2.1092 C   0  0  0  0  0  0  0  0  0  0  0  0
   18.9779   14.0979   18.9768 C   0  0  0  0  0  0  0  0  0  0  0  0
   -2.1084   15.5684   -2.1105 C   0  0  0  0  0  0  0  0  0  0  0  0
   -2.1084   15.5684   18.9755 C   0  0  0  0  0  0  0  0  0  0  0  0
   18.9776   15.5684   -2.1105 C   0  0  0  0  0  0  0  0  0  0  0  0
   18.9776   15.5684   18.9755 C   0  0  0  0  0  0  0  0  0  0  0  0
   -3.3130   13.4126   -2.0699 C   0  0  0  0  0  0  0  0  0  0  0  0
   -3.3130   13.4126   19.0161 C   0  0  0  0  0  0  0  0  0  0  0  0
   17.7730   13.4126   -2.0699 C   0  0  0  0  0  0  0  0  0  0  0  0
   17.7730   13.4126   19.0161 C   0  0  0  0  0  0  0  0  0  0  0  0
   -3.3062   12.0368   -2.0947 C   0  0  0  0  0  0  0  0  0  0  0  0
   -3.3062   12.0368   18.9913 C   0  0  0  0  0  0  0  0  0  0  0  0
   17.7798   12.0368   -2.0947 C   0  0  0  0  0  0  0  0  0  0  0  0
   17.7798   12.0368   18.9913 C   0  0  0  0  0  0  0  0  0  0  0  0
   -3.2975    9.1220   -2.1100 C   0  0  0  0  0  0  0  0  0  0  0  0
   -3.2975    9.1220   18.9760 C   0  0  0  0  0  0  0  0  0  0  0  0
   17.7885    9.1220   -2.1100 C   0  0  0  0  0  0  0  0  0  0  0  0
   17.7885    9.1220   18.9760 C   0  0  0  0  0  0  0  0  0  0  0  0
   -3.2971    7.7482   -2.1091 C   0  0  0  0  0  0  0  0  0  0  0  0
   -3.2971    7.7482   18.9769 C   0  0  0  0  0  0  0  0  0  0  0  0
   17.7889    7.7482   -2.1091 C   0  0  0  0  0  0  0  0  0  0  0  0
   17.7889    7.7482   18.9769 C   0  0  0  0  0  0  0  0  0  0  0  0
   -0.9109    4.8326   -2.0918 C   0  0  0  0  0  0  0  0  0  0  0  0
   -0.9109    4.8326   18.9942 C   0  0  0  0  0  0  0  0  0  0  0  0
   20.1751    4.8326   -2.0918 C   0  0  0  0  0  0  0  0  0  0  0  0
   20.1751    4.8326   18.9942 C   0  0  0  0  0  0  0  0  0  0  0  0
   -0.9040    3.4569   -2.0675 C   0  0  0  0  0  0  0  0  0  0  0  0
   -0.9040    3.4569   19.0185 C   0  0  0  0  0  0  0  0  0  0  0  0
   -0.9040   24.5429   -2.0675 C   0  0  0  0  0  0  0  0  0  0  0  0
   -0.9040   24.5429   19.0185 C   0  0  0  0  0  0  0  0  0  0  0  0
   20.1820    3.4569   -2.0675 C   0  0  0  0  0  0  0  0  0  0  0  0
   20.1820    3.4569   19.0185 C   0  0  0  0  0  0  0  0  0  0  0  0
   20.1820   24.5429   -2.0675 C   0  0  0  0  0  0  0  0  0  0  0  0
   20.1820   24.5429   19.0185 C   0  0  0  0  0  0  0  0  0  0  0  0
   -2.1068   -2.1074    1.2809 C   0  0  0  0  0  0  0  0  0  0  0  0
   -2.1068   -2.1074   22.3669 C   0  0  0  0  0  0  0  0  0  0  0  0
   -2.1068   18.9786    1.2809 C   0  0  0  0  0  0  0  0  0  0  0  0
   -2.1068   18.9786   22.3669 C   0  0  0  0  0  0  0  0  0  0  0  0
   18.9792   -2.1074    1.2809 C   0  0  0  0  0  0  0  0  0  0  0  0
   18.9792   -2.1074   22.3669 C   0  0  0  0  0  0  0  0  0  0  0  0
   18.9792   18.9786    1.2809 C   0  0  0  0  0  0  0  0  0  0  0  0
   18.9792   18.9786   22.3669 C   0  0  0  0  0  0  0  0  0  0  0  0
   -2.1073   -2.1086    2.7626 C   0  0  0  0  0  0  0  0  0  0  0  0
   -2.1073   -2.1086   23.8486 C   0  0  0  0  0  0  0  0  0  0  0  0
   -2.1073   18.9774    2.7626 C   0  0  0  0  0  0  0  0  0  0  0  0
   -2.1073   18.9774   23.8486 C   0  0  0  0  0  0  0  0  0  0  0  0
   18.9787   -2.1086    2.7626 C   0  0  0  0  0  0  0  0  0  0  0  0
   18.9787   -2.1086   23.8486 C   0  0  0  0  0  0  0  0  0  0  0  0
   18.9787   18.9774    2.7626 C   0  0  0  0  0  0  0  0  0  0  0  0
   18.9787   18.9774   23.8486 C   0  0  0  0  0  0  0  0  0  0  0  0
   -2.1489   -3.3123    3.4570 C   0  0  0  0  0  0  0  0  0  0  0  0
   -2.1489   -3.3123   24.5430 C   0  0  0  0  0  0  0  0  0  0  0  0
   -2.1489   17.7737    3.4570 C   0  0  0  0  0  0  0  0  0  0  0  0
   -2.1489   17.7737   24.5430 C   0  0  0  0  0  0  0  0  0  0  0  0
   18.9371   -3.3123    3.4570 C   0  0  0  0  0  0  0  0  0  0  0  0
   18.9371   -3.3123   24.5430 C   0  0  0  0  0  0  0  0  0  0  0  0
   18.9371   17.7737    3.4570 C   0  0  0  0  0  0  0  0  0  0  0  0
   18.9371   17.7737   24.5430 C   0  0  0  0  0  0  0  0  0  0  0  0
   -2.1247   -3.3086    4.8341 C   0  0  0  0  0  0  0  0  0  0  0  0
   -2.1247   17.7774    4.8341 C   0  0  0  0  0  0  0  0  0  0  0  0
   18.9613   -3.3086    4.8341 C   0  0  0  0  0  0  0  0  0  0  0  0
   18.9613   17.7774    4.8341 C   0  0  0  0  0  0  0  0  0  0  0  0
   -2.1086   -2.1094    5.5534 C   0  0  0  0  0  0  0  0  0  0  0  0
   -2.1086   18.9766    5.5534 C   0  0  0  0  0  0  0  0  0  0  0  0
   18.9774   -2.1094    5.5534 C   0  0  0  0  0  0  0  0  0  0  0  0
   18.9774   18.9766    5.5534 C   0  0  0  0  0  0  0  0  0  0  0  0
   -2.1092   -2.1098    7.0164 C   0  0  0  0  0  0  0  0  0  0  0  0
   -2.1092   18.9762    7.0164 C   0  0  0  0  0  0  0  0  0  0  0  0
   18.9768   -2.1098    7.0164 C   0  0  0  0  0  0  0  0  0  0  0  0
   18.9768   18.9762    7.0164 C   0  0  0  0  0  0  0  0  0  0  0  0
   -2.1091   -0.9223    7.7474 C   0  0  0  0  0  0  0  0  0  0  0  0
   -2.1091   20.1637    7.7474 C   0  0  0  0  0  0  0  0  0  0  0  0
   18.9769   -0.9223    7.7474 C   0  0  0  0  0  0  0  0  0  0  0  0
   18.9769   20.1637    7.7474 C   0  0  0  0  0  0  0  0  0  0  0  0
   -2.1095   -0.9224    9.1206 C   0  0  0  0  0  0  0  0  0  0  0  0
   -2.1095   20.1636    9.1206 C   0  0  0  0  0  0  0  0  0  0  0  0
   18.9765   -0.9224    9.1206 C   0  0  0  0  0  0  0  0  0  0  0  0
   18.9765   20.1636    9.1206 C   0  0  0  0  0  0  0  0  0  0  0  0
   -2.1104   -2.1100    9.8515 C   0  0  0  0  0  0  0  0  0  0  0  0
   -2.1104   18.9760    9.8515 C   0  0  0  0  0  0  0  0  0  0  0  0
   18.9756   -2.1100    9.8515 C   0  0  0  0  0  0  0  0  0  0  0  0
   18.9756   18.9760    9.8515 C   0  0  0  0  0  0  0  0  0  0  0  0
   -2.1103   -2.1101   11.3145 C   0  0  0  0  0  0  0  0  0  0  0  0
   -2.1103   18.9759   11.3145 C   0  0  0  0  0  0  0  0  0  0  0  0
   18.9757   -2.1101   11.3145 C   0  0  0  0  0  0  0  0  0  0  0  0
   18.9757   18.9759   11.3145 C   0  0  0  0  0  0  0  0  0  0  0  0
   -2.1245   -0.9108   12.0337 C   0  0  0  0  0  0  0  0  0  0  0  0
   -2.1245   20.1752   12.0337 C   0  0  0  0  0  0  0  0  0  0  0  0
   18.9615   -0.9108   12.0337 C   0  0  0  0  0  0  0  0  0  0  0  0
   18.9615   20.1752   12.0337 C   0  0  0  0  0  0  0  0  0  0  0  0
   -2.1487   -0.9064   13.4108 C   0  0  0  0  0  0  0  0  0  0  0  0
   -2.1487   20.1796   13.4108 C   0  0  0  0  0  0  0  0  0  0  0  0
   18.9373   -0.9064   13.4108 C   0  0  0  0  0  0  0  0  0  0  0  0
   18.9373   20.1796   13.4108 C   0  0  0  0  0  0  0  0  0  0  0  0
   -2.1093   -2.1098   14.1057 C   0  0  0  0  0  0  0  0  0  0  0  0
   -2.1093   18.9762   14.1057 C   0  0  0  0  0  0  0  0  0  0  0  0
   18.9767   -2.1098   14.1057 C   0  0  0  0  0  0  0  0  0  0  0  0
   18.9767   18.9762   14.1057 C   0  0  0  0  0  0  0  0  0  0  0  0
   -2.1090   -2.1082   15.5877 C   0  0  0  0  0  0  0  0  0  0  0  0
   -2.1090   18.9778   15.5877 C   0  0  0  0  0  0  0  0  0  0  0  0
   18.9770   -2.1082   15.5877 C   0  0  0  0  0  0  0  0  0  0  0  0
   18.9770   18.9778   15.5877 C   0  0  0  0  0  0  0  0  0  0  0  0
   -2.0704   -3.3135   13.4114 C   0  0  0  0  0  0  0  0  0  0  0  0
   -2.0704   17.7725   13.4114 C   0  0  0  0  0  0  0  0  0  0  0  0
   19.0156   -3.3135   13.4114 C   0  0  0  0  0  0  0  0  0  0  0  0
   19.0156   17.7725   13.4114 C   0  0  0  0  0  0  0  0  0  0  0  0
   -2.0957   -3.3091   12.0344 C   0  0  0  0  0  0  0  0  0  0  0  0
   -2.0957   17.7769   12.0344 C   0  0  0  0  0  0  0  0  0  0  0  0
   18.9903   -3.3091   12.0344 C   0  0  0  0  0  0  0  0  0  0  0  0
   18.9903   17.7769   12.0344 C   0  0  0  0  0  0  0  0  0  0  0  0
   -2.1110   -3.2973    9.1203 C   0  0  0  0  0  0  0  0  0  0  0  0
   -2.1110   17.7887    9.1203 C   0  0  0  0  0  0  0  0  0  0  0  0
   18.9750   -3.2973    9.1203 C   0  0  0  0  0  0  0  0  0  0  0  0
   18.9750   17.7887    9.1203 C   0  0  0  0  0  0  0  0  0  0  0  0
   -2.1100   -3.2975    7.7471 C   0  0  0  0  0  0  0  0  0  0  0  0
   -2.1100   17.7885    7.7471 C   0  0  0  0  0  0  0  0  0  0  0  0
   18.9760   -3.2975    7.7471 C   0  0  0  0  0  0  0  0  0  0  0  0
   18.9760   17.7885    7.7471 C   0  0  0  0  0  0  0  0  0  0  0  0
   -2.0923   -0.9098    4.8348 C   0  0  0  0  0  0  0  0  0  0  0  0
   -2.0923   20.1762    4.8348 C   0  0  0  0  0  0  0  0  0  0  0  0
   18.9937   -0.9098    4.8348 C   0  0  0  0  0  0  0  0  0  0  0  0
   18.9937   20.1762    4.8348 C   0  0  0  0  0  0  0  0  0  0  0  0
   -2.0669   -0.9052    3.4577 C   0  0  0  0  0  0  0  0  0  0  0  0
   -2.0669   -0.9052   24.5437 C   0  0  0  0  0  0  0  0  0  0  0  0
   -2.0669   20.1808    3.4577 C   0  0  0  0  0  0  0  0  0  0  0  0
   -2.0669   20.1808   24.5437 C   0  0  0  0  0  0  0  0  0  0  0  0
   19.0191   -0.9052    3.4577 C   0  0  0  0  0  0  0  0  0  0  0  0
   19.0191   -0.9052   24.5437 C   0  0  0  0  0  0  0  0  0  0  0  0
   19.0191   20.1808    3.4577 C   0  0  0  0  0  0  0  0  0  0  0  0
   19.0191   20.1808   24.5437 C   0  0  0  0  0  0  0  0  0  0  0  0
   10.5428   10.5408   10.5442 O   0  0  0  0  0  0  0  0  0  0  0  0
   13.3817    9.6001    9.9475 O   0  0  0  0  0  0  0  0  0  0  0  0
   13.3822   11.4845   11.1424 O   0  0  0  0  0  0  0  0  0  0  0  0
    7.7060   11.4832    9.9487 O   0  0  0  0  0  0  0  0  0  0  0  0
    7.7026    9.5971   11.1410 O   0  0  0  0  0  0  0  0  0  0  0  0
    9.7780   13.3827    9.7298 O   0  0  0  0  0  0  0  0  0  0  0  0
   11.3069   13.3838   11.3617 O   0  0  0  0  0  0  0  0  0  0  0  0
   11.3072    7.7023    9.7292 O   0  0  0  0  0  0  0  0  0  0  0  0
    9.7803    7.7002   11.3636 O   0  0  0  0  0  0  0  0  0  0  0  0
    9.6978    9.8111   13.3576 O   0  0  0  0  0  0  0  0  0  0  0  0
   11.3855   11.2717   13.3557 O   0  0  0  0  0  0  0  0  0  0  0  0
    9.7020   11.2741    7.7320 O   0  0  0  0  0  0  0  0  0  0  0  0
   11.3830    9.8067    7.7296 O   0  0  0  0  0  0  0  0  0  0  0  0
   -2.1085   -2.1064   -2.1098 O   0  0  0  0  0  0  0  0  0  0  0  0
   -2.1085   -2.1064   18.9762 O   0  0  0  0  0  0  0  0  0  0  0  0
   -2.1085   18.9796   -2.1098 O   0  0  0  0  0  0  0  0  0  0  0  0
   -2.1085   18.9796   18.9762 O   0  0  0  0  0  0  0  0  0  0  0  0
   18.9775   -2.1064   -2.1098 O   0  0  0  0  0  0  0  0  0  0  0  0
   18.9775   -2.1064   18.9762 O   0  0  0  0  0  0  0  0  0  0  0  0
   18.9775   18.9796   -2.1098 O   0  0  0  0  0  0  0  0  0  0  0  0
   18.9775   18.9796   18.9762 O   0  0  0  0  0  0  0  0  0  0  0  0
    0.7302   -3.0489   -2.7081 O   0  0  0  0  0  0  0  0  0  0  0  0
    0.7302   -3.0489   18.3779 O   0  0  0  0  0  0  0  0  0  0  0  0
    0.7302   18.0371   -2.7081 O   0  0  0  0  0  0  0  0  0  0  0  0
    0.7302   18.0371   18.3779 O   0  0  0  0  0  0  0  0  0  0  0  0
   21.8162   -3.0489   -2.7081 O   0  0  0  0  0  0  0  0  0  0  0  0
   21.8162   -3.0489   18.3779 O   0  0  0  0  0  0  0  0  0  0  0  0
   21.8162   18.0371   -2.7081 O   0  0  0  0  0  0  0  0  0  0  0  0
   21.8162   18.0371   18.3779 O   0  0  0  0  0  0  0  0  0  0  0  0
    0.7299   -1.1637   -1.5143 O   0  0  0  0  0  0  0  0  0  0  0  0
    0.7299   -1.1637   19.5717 O   0  0  0  0  0  0  0  0  0  0  0  0
    0.7299   19.9223   -1.5143 O   0  0  0  0  0  0  0  0  0  0  0  0
    0.7299   19.9223   19.5717 O   0  0  0  0  0  0  0  0  0  0  0  0
   21.8159   -1.1637   -1.5143 O   0  0  0  0  0  0  0  0  0  0  0  0
   21.8159   -1.1637   19.5717 O   0  0  0  0  0  0  0  0  0  0  0  0
   21.8159   19.9223   -1.5143 O   0  0  0  0  0  0  0  0  0  0  0  0
   21.8159   19.9223   19.5717 O   0  0  0  0  0  0  0  0  0  0  0  0
   16.1371   -1.1643   -2.7071 O   0  0  0  0  0  0  0  0  0  0  0  0
   16.1371   -1.1643   18.3789 O   0  0  0  0  0  0  0  0  0  0  0  0
   16.1371   19.9217   -2.7071 O   0  0  0  0  0  0  0  0  0  0  0  0
   16.1371   19.9217   18.3789 O   0  0  0  0  0  0  0  0  0  0  0  0
   16.1396   -3.0484   -1.5118 O   0  0  0  0  0  0  0  0  0  0  0  0
   16.1396   -3.0484   19.5742 O   0  0  0  0  0  0  0  0  0  0  0  0
   16.1396   18.0376   -1.5118 O   0  0  0  0  0  0  0  0  0  0  0  0
   16.1396   18.0376   19.5742 O   0  0  0  0  0  0  0  0  0  0  0  0
   -2.8714    0.7337   -2.9284 O   0  0  0  0  0  0  0  0  0  0  0  0
   -2.8714    0.7337   18.1576 O   0  0  0  0  0  0  0  0  0  0  0  0
   -2.8714   21.8197   -2.9284 O   0  0  0  0  0  0  0  0  0  0  0  0
   -2.8714   21.8197   18.1576 O   0  0  0  0  0  0  0  0  0  0  0  0
   18.2146    0.7337   -2.9284 O   0  0  0  0  0  0  0  0  0  0  0  0
   18.2146    0.7337   18.1576 O   0  0  0  0  0  0  0  0  0  0  0  0
   18.2146   21.8197   -2.9284 O   0  0  0  0  0  0  0  0  0  0  0  0
   18.2146   21.8197   18.1576 O   0  0  0  0  0  0  0  0  0  0  0  0
   -1.3444    0.7327   -1.2940 O   0  0  0  0  0  0  0  0  0  0  0  0
   -1.3444    0.7327   19.7920 O   0  0  0  0  0  0  0  0  0  0  0  0
   -1.3444   21.8187   -1.2940 O   0  0  0  0  0  0  0  0  0  0  0  0
   -1.3444   21.8187   19.7920 O   0  0  0  0  0  0  0  0  0  0  0  0
   19.7416    0.7327   -1.2940 O   0  0  0  0  0  0  0  0  0  0  0  0
   19.7416    0.7327   19.7920 O   0  0  0  0  0  0  0  0  0  0  0  0
   19.7416   21.8187   -1.2940 O   0  0  0  0  0  0  0  0  0  0  0  0
   19.7416   21.8187   19.7920 O   0  0  0  0  0  0  0  0  0  0  0  0
   -1.3435   16.1360   -2.9268 O   0  0  0  0  0  0  0  0  0  0  0  0
   -1.3435   16.1360   18.1592 O   0  0  0  0  0  0  0  0  0  0  0  0
   19.7425   16.1360   -2.9268 O   0  0  0  0  0  0  0  0  0  0  0  0
   19.7425   16.1360   18.1592 O   0  0  0  0  0  0  0  0  0  0  0  0
   -2.8738   16.1378   -1.2962 O   0  0  0  0  0  0  0  0  0  0  0  0
   -2.8738   16.1378   19.7898 O   0  0  0  0  0  0  0  0  0  0  0  0
   18.2122   16.1378   -1.2962 O   0  0  0  0  0  0  0  0  0  0  0  0
   18.2122   16.1378   19.7898 O   0  0  0  0  0  0  0  0  0  0  0  0
   -2.9469   -2.8403    0.7023 O   0  0  0  0  0  0  0  0  0  0  0  0
   -2.9469   -2.8403   21.7883 O   0  0  0  0  0  0  0  0  0  0  0  0
   -2.9469   18.2457    0.7023 O   0  0  0  0  0  0  0  0  0  0  0  0
   -2.9469   18.2457   21.7883 O   0  0  0  0  0  0  0  0  0  0  0  0
   18.1391   -2.8403    0.7023 O   0  0  0  0  0  0  0  0  0  0  0  0
   18.1391   -2.8403   21.7883 O   0  0  0  0  0  0  0  0  0  0  0  0
   18.1391   18.2457    0.7023 O   0  0  0  0  0  0  0  0  0  0  0  0
   18.1391   18.2457   21.7883 O   0  0  0  0  0  0  0  0  0  0  0  0
   -1.2665   -1.3722    0.7047 O   0  0  0  0  0  0  0  0  0  0  0  0
   -1.2665   -1.3722   21.7907 O   0  0  0  0  0  0  0  0  0  0  0  0
   -1.2665   19.7138    0.7047 O   0  0  0  0  0  0  0  0  0  0  0  0
   -1.2665   19.7138   21.7907 O   0  0  0  0  0  0  0  0  0  0  0  0
   19.8195   -1.3722    0.7047 O   0  0  0  0  0  0  0  0  0  0  0  0
   19.8195   -1.3722   21.7907 O   0  0  0  0  0  0  0  0  0  0  0  0
   19.8195   19.7138    0.7047 O   0  0  0  0  0  0  0  0  0  0  0  0
   19.8195   19.7138   21.7907 O   0  0  0  0  0  0  0  0  0  0  0  0
   -2.9515   -1.3752   16.1626 O   0  0  0  0  0  0  0  0  0  0  0  0
   -2.9515   19.7108   16.1626 O   0  0  0  0  0  0  0  0  0  0  0  0
   18.1345   -1.3752   16.1626 O   0  0  0  0  0  0  0  0  0  0  0  0
   18.1345   19.7108   16.1626 O   0  0  0  0  0  0  0  0  0  0  0  0
   -1.2653   -2.8375   16.1647 O   0  0  0  0  0  0  0  0  0  0  0  0
   -1.2653   18.2485   16.1647 O   0  0  0  0  0  0  0  0  0  0  0  0
   19.8207   -2.8375   16.1647 O   0  0  0  0  0  0  0  0  0  0  0  0
   19.8207   18.2485   16.1647 O   0  0  0  0  0  0  0  0  0  0  0  0
  1649  1  0  0  0  0
  1650  1  0  0  0  0
  1656  1  0  0  0  0
  1661  1  0  0  0  0
  2649  1  0  0  0  0
  2652  1  0  0  0  0
  2654  1  0  0  0  0
  2660  1  0  0  0  0
  3649  1  0  0  0  0
  3653  1  0  0  0  0
  3657  1  0  0  0  0
  3658  1  0  0  0  0
  4649  1  0  0  0  0
  4651  1  0  0  0  0
  4655  1  0  0  0  0
  4659  1  0  0  0  0
  5662  1  0  0  0  0
  5670  1  0  0  0  0
  6663  1  0  0  0  0
  6671  1  0  0  0  0
  6738  1  0  0  0  0
  7664  1  0  0  0  0
  7672  1  0  0  0  0
  7710  1  0  0  0  0
  8665  1  0  0  0  0
  8673  1  0  0  0  0
  8711  1  0  0  0  0
  8739  1  0  0  0  0
  9666  1  0  0  0  0
  9674  1  0  0  0  0
 10667  1  0  0  0  0
 10675  1  0  0  0  0
 10740  1  0  0  0  0
 11668  1  0  0  0  0
 11676  1  0  0  0  0
 11712  1  0  0  0  0
 12669  1  0  0  0  0
 12677  1  0  0  0  0
 12713  1  0  0  0  0
 12741  1  0  0  0  0
 13662  1  0  0  0  0
 13694  1  0  0  0  0
 14663  1  0  0  0  0
 14695  1  0  0  0  0
 14734  1  0  0  0  0
 15664  1  0  0  0  0
 15696  1  0  0  0  0
 16665  1  0  0  0  0
 16697  1  0  0  0  0
 16735  1  0  0  0  0
 17666  1  0  0  0  0
 17686  1  0  0  0  0
 17698  1  0  0  0  0
 18667  1  0  0  0  0
 18687  1  0  0  0  0
 18699  1  0  0  0  0
 18736  1  0  0  0  0
 19668  1  0  0  0  0
 19688  1  0  0  0  0
 19700  1  0  0  0  0
 20669  1  0  0  0  0
 20689  1  0  0  0  0
 20701  1  0  0  0  0
 20737  1  0  0  0  0
 21662  1  0  0  0  0
 21718  1  0  0  0  0
 22663  1  0  0  0  0
 22719  1  0  0  0  0
 23664  1  0  0  0  0
 23714  1  0  0  0  0
 23720  1  0  0  0  0
 24665  1  0  0  0  0
 24715  1  0  0  0  0
 24721  1  0  0  0  0
 25666  1  0  0  0  0
 25690  1  0  0  0  0
 25722  1  0  0  0  0
 26667  1  0  0  0  0
 26691  1  0  0  0  0
 26723  1  0  0  0  0
 27668  1  0  0  0  0
 27692  1  0  0  0  0
 27716  1  0  0  0  0
 27724  1  0  0  0  0
 28669  1  0  0  0  0
 28693  1  0  0  0  0
 28717  1  0  0  0  0
 28725  1  0  0  0  0
 29662  1  0  0  0  0
 29678  1  0  0  0  0
 29702  1  0  0  0  0
 29726  1  0  0  0  0
 30663  1  0  0  0  0
 30679  1  0  0  0  0
 30703  1  0  0  0  0
 30727  1  0  0  0  0
 31664  1  0  0  0  0
 31680  1  0  0  0  0
 31704  1  0  0  0  0
 31728  1  0  0  0  0
 32665  1  0  0  0  0
 32681  1  0  0  0  0
 32705  1  0  0  0  0
 32729  1  0  0  0  0
 33666  1  0  0  0  0
 33682  1  0  0  0  0
 33706  1  0  0  0  0
 33730  1  0  0  0  0
 34667  1  0  0  0  0
 34683  1  0  0  0  0
 34707  1  0  0  0  0
 34731  1  0  0  0  0
 35668  1  0  0  0  0
 35684  1  0  0  0  0
 35708  1  0  0  0  0
 35732  1  0  0  0  0
 36669  1  0  0  0  0
 36685  1  0  0  0  0
 36709  1  0  0  0  0
 36733  1  0  0  0  0
 37267  1  0  0  0  0
 38268  1  0  0  0  0
 39269  1  0  0  0  0
 40274  1  0  0  0  0
 41275  1  0  0  0  0
 42276  1  0  0  0  0
 43277  1  0  0  0  0
 44282  1  0  0  0  0
 45283  1  0  0  0  0
 46284  1  0  0  0  0
 47287  1  0  0  0  0
 48288  1  0  0  0  0
 49289  1  0  0  0  0
 50290  1  0  0  0  0
 51291  1  0  0  0  0
 52292  1  0  0  0  0
 53293  1  0  0  0  0
 54294  1  0  0  0  0
 55295  1  0  0  0  0
 56296  1  0  0  0  0
 57299  1  0  0  0  0
 58300  1  0  0  0  0
 59301  1  0  0  0  0
 60306  1  0  0  0  0
 61307  1  0  0  0  0
 62308  1  0  0  0  0
 63309  1  0  0  0  0
 64314  1  0  0  0  0
 65315  1  0  0  0  0
 66316  1  0  0  0  0
 67319  1  0  0  0  0
 68320  1  0  0  0  0
 69321  1  0  0  0  0
 70322  1  0  0  0  0
 71323  1  0  0  0  0
 72324  1  0  0  0  0
 73325  1  0  0  0  0
 74326  1  0  0  0  0
 75327  1  0  0  0  0
 76328  1  0  0  0  0
 77331  1  0  0  0  0
 78332  1  0  0  0  0
 79333  1  0  0  0  0
 80338  1  0  0  0  0
 81339  1  0  0  0  0
 82340  1  0  0  0  0
 83341  1  0  0  0  0
 84346  1  0  0  0  0
 85347  1  0  0  0  0
 86348  1  0  0  0  0
 87351  1  0  0  0  0
 88352  1  0  0  0  0
 89353  1  0  0  0  0
 90354  1  0  0  0  0
 91355  1  0  0  0  0
 92356  1  0  0  0  0
 93357  1  0  0  0  0
 94358  1  0  0  0  0
 95359  1  0  0  0  0
 96360  1  0  0  0  0
 97377  1  0  0  0  0
 98378  1  0  0  0  0
 99379  1  0  0  0  0
100380  1  0  0  0  0
101381  1  0  0  0  0
102382  1  0  0  0  0
103383  1  0  0  0  0
104384  1  0  0  0  0
105385  1  0  0  0  0
106386  1  0  0  0  0
107387  1  0  0  0  0
108388  1  0  0  0  0
109397  1  0  0  0  0
110398  1  0  0  0  0
111399  1  0  0  0  0
112400  1  0  0  0  0
113401  1  0  0  0  0
114402  1  0  0  0  0
115403  1  0  0  0  0
116404  1  0  0  0  0
117413  1  0  0  0  0
118414  1  0  0  0  0
119415  1  0  0  0  0
120416  1  0  0  0  0
121417  1  0  0  0  0
122418  1  0  0  0  0
123419  1  0  0  0  0
124420  1  0  0  0  0
125429  1  0  0  0  0
126430  1  0  0  0  0
127431  1  0  0  0  0
128432  1  0  0  0  0
129433  1  0  0  0  0
130434  1  0  0  0  0
131435  1  0  0  0  0
132436  1  0  0  0  0
133437  1  0  0  0  0
134438  1  0  0  0  0
135439  1  0  0  0  0
136440  1  0  0  0  0
137441  1  0  0  0  0
138442  1  0  0  0  0
139443  1  0  0  0  0
140444  1  0  0  0  0
141445  1  0  0  0  0
142446  1  0  0  0  0
143447  1  0  0  0  0
144448  1  0  0  0  0
145449  1  0  0  0  0
146450  1  0  0  0  0
147451  1  0  0  0  0
148452  1  0  0  0  0
149453  1  0  0  0  0
150454  1  0  0  0  0
151455  1  0  0  0  0
152456  1  0  0  0  0
153473  1  0  0  0  0
154474  1  0  0  0  0
155475  1  0  0  0  0
156476  1  0  0  0  0
157477  1  0  0  0  0
158478  1  0  0  0  0
159479  1  0  0  0  0
160480  1  0  0  0  0
161481  1  0  0  0  0
162482  1  0  0  0  0
163483  1  0  0  0  0
164484  1  0  0  0  0
165493  1  0  0  0  0
166494  1  0  0  0  0
167495  1  0  0  0  0
168496  1  0  0  0  0
169497  1  0  0  0  0
170498  1  0  0  0  0
171499  1  0  0  0  0
172500  1  0  0  0  0
173509  1  0  0  0  0
174510  1  0  0  0  0
175511  1  0  0  0  0
176512  1  0  0  0  0
177513  1  0  0  0  0
178514  1  0  0  0  0
179515  1  0  0  0  0
180516  1  0  0  0  0
181525  1  0  0  0  0
182526  1  0  0  0  0
183527  1  0  0  0  0
184528  1  0  0  0  0
185529  1  0  0  0  0
186530  1  0  0  0  0
187531  1  0  0  0  0
188532  1  0  0  0  0
189533  1  0  0  0  0
190534  1  0  0  0  0
191535  1  0  0  0  0
192536  1  0  0  0  0
193537  1  0  0  0  0
194538  1  0  0  0  0
195539  1  0  0  0  0
196540  1  0  0  0  0
197541  1  0  0  0  0
198542  1  0  0  0  0
199543  1  0  0  0  0
200544  1  0  0  0  0
201545  1  0  0  0  0
202546  1  0  0  0  0
203547  1  0  0  0  0
204548  1  0  0  0  0
205549  1  0  0  0  0
206550  1  0  0  0  0
207551  1  0  0  0  0
208552  1  0  0  0  0
209569  1  0  0  0  0
210570  1  0  0  0  0
211571  1  0  0  0  0
212572  1  0  0  0  0
213573  1  0  0  0  0
214574  1  0  0  0  0
215575  1  0  0  0  0
216576  1  0  0  0  0
217577  1  0  0  0  0
218578  1  0  0  0  0
219579  1  0  0  0  0
220580  1  0  0  0  0
221589  1  0  0  0  0
222590  1  0  0  0  0
223591  1  0  0  0  0
224592  1  0  0  0  0
225593  1  0  0  0  0
226594  1  0  0  0  0
227595  1  0  0  0  0
228596  1  0  0  0  0
229605  1  0  0  0  0
230606  1  0  0  0  0
231607  1  0  0  0  0
232608  1  0  0  0  0
233609  1  0  0  0  0
234610  1  0  0  0  0
235611  1  0  0  0  0
236612  1  0  0  0  0
237621  1  0  0  0  0
238622  1  0  0  0  0
239623  1  0  0  0  0
240624  1  0  0  0  0
241625  1  0  0  0  0
242626  1  0  0  0  0
243627  1  0  0  0  0
244628  1  0  0  0  0
245629  1  0  0  0  0
246630  1  0  0  0  0
247631  1  0  0  0  0
248632  1  0  0  0  0
249633  1  0  0  0  0
250634  1  0  0  0  0
251635  1  0  0  0  0
252636  1  0  0  0  0
253637  1  0  0  0  0
254638  1  0  0  0  0
255639  1  0  0  0  0
256640  1  0  0  0  0
257641  1  0  0  0  0
258642  1  0  0  0  0
259643  1  0  0  0  0
260644  1  0  0  0  0
261645  1  0  0  0  0
262646  1  0  0  0  0
263647  1  0  0  0  0
264648  1  0  0  0  0
265266  1  0  0  0  0
265650  1  0  0  0  0
265651  1  0  0  0  0
266267  1  0  0  0  0
266296  1  0  0  0  0
267269  1  0  0  0  0
268270  1  0  0  0  0
269271  1  0  0  0  0
270272  1  0  0  0  0
270294  1  0  0  0  0
271273  1  0  0  0  0
271295  1  0  0  0  0
272274  1  0  0  0  0
272292  1  0  0  0  0
273275  1  0  0  0  0
273293  1  0  0  0  0
274276  1  0  0  0  0
275277  1  0  0  0  0
276278  1  0  0  0  0
277279  1  0  0  0  0
278280  1  0  0  0  0
278290  1  0  0  0  0
279281  1  0  0  0  0
279291  1  0  0  0  0
280282  1  0  0  0  0
280288  1  0  0  0  0
281283  1  0  0  0  0
281289  1  0  0  0  0
282284  1  0  0  0  0
284285  1  0  0  0  0
285286  1  0  0  0  0
285287  1  0  0  0  0
286652  1  0  0  0  0
286653  1  0  0  0  0
287288  1  0  0  0  0
290292  1  0  0  0  0
291293  1  0  0  0  0
295296  1  0  0  0  0
297298  1  0  0  0  0
297654  1  0  0  0  0
297655  1  0  0  0  0
298299  1  0  0  0  0
298328  1  0  0  0  0
299301  1  0  0  0  0
300302  1  0  0  0  0
301303  1  0  0  0  0
302304  1  0  0  0  0
302326  1  0  0  0  0
303305  1  0  0  0  0
303327  1  0  0  0  0
304306  1  0  0  0  0
304324  1  0  0  0  0
305307  1  0  0  0  0
305325  1  0  0  0  0
306308  1  0  0  0  0
307309  1  0  0  0  0
308310  1  0  0  0  0
309311  1  0  0  0  0
310312  1  0  0  0  0
310322  1  0  0  0  0
311313  1  0  0  0  0
311323  1  0  0  0  0
312314  1  0  0  0  0
312320  1  0  0  0  0
313315  1  0  0  0  0
313321  1  0  0  0  0
314316  1  0  0  0  0
316317  1  0  0  0  0
317318  1  0  0  0  0
317319  1  0  0  0  0
318656  1  0  0  0  0
318657  1  0  0  0  0
319320  1  0  0  0  0
322324  1  0  0  0  0
323325  1  0  0  0  0
327328  1  0  0  0  0
329330  1  0  0  0  0
329658  1  0  0  0  0
329659  1  0  0  0  0
330331  1  0  0  0  0
330360  1  0  0  0  0
331333  1  0  0  0  0
332334  1  0  0  0  0
333335  1  0  0  0  0
334336  1  0  0  0  0
334358  1  0  0  0  0
335337  1  0  0  0  0
335359  1  0  0  0  0
336338  1  0  0  0  0
336356  1  0  0  0  0
337339  1  0  0  0  0
337357  1  0  0  0  0
338340  1  0  0  0  0
339341  1  0  0  0  0
340342  1  0  0  0  0
341343  1  0  0  0  0
342344  1  0  0  0  0
342354  1  0  0  0  0
343345  1  0  0  0  0
343355  1  0  0  0  0
344346  1  0  0  0  0
344352  1  0  0  0  0
345347  1  0  0  0  0
345353  1  0  0  0  0
346348  1  0  0  0  0
348349  1  0  0  0  0
349350  1  0  0  0  0
349351  1  0  0  0  0
350660  1  0  0  0  0
350661  1  0  0  0  0
351352  1  0  0  0  0
354356  1  0  0  0  0
355357  1  0  0  0  0
359360  1  0  0  0  0
361369  1  0  0  0  0
361670  1  0  0  0  0
361678  1  0  0  0  0
362370  1  0  0  0  0
362671  1  0  0  0  0
362679  1  0  0  0  0
363371  1  0  0  0  0
363672  1  0  0  0  0
363680  1  0  0  0  0
364372  1  0  0  0  0
364673  1  0  0  0  0
364681  1  0  0  0  0
365373  1  0  0  0  0
365674  1  0  0  0  0
365682  1  0  0  0  0
366374  1  0  0  0  0
366675  1  0  0  0  0
366683  1  0  0  0  0
367375  1  0  0  0  0
367676  1  0  0  0  0
367684  1  0  0  0  0
368376  1  0  0  0  0
368677  1  0  0  0  0
368685  1  0  0  0  0
369377  1  0  0  0  0
369449  1  0  0  0  0
370378  1  0  0  0  0
370450  1  0  0  0  0
371379  1  0  0  0  0
371451  1  0  0  0  0
372380  1  0  0  0  0
372452  1  0  0  0  0
373381  1  0  0  0  0
373453  1  0  0  0  0
374382  1  0  0  0  0
374454  1  0  0  0  0
375383  1  0  0  0  0
375455  1  0  0  0  0
376384  1  0  0  0  0
376456  1  0  0  0  0
377385  1  0  0  0  0
378386  1  0  0  0  0
379387  1  0  0  0  0
380388  1  0  0  0  0
385389  1  0  0  0  0
386390  1  0  0  0  0
387391  1  0  0  0  0
388392  1  0  0  0  0
389393  1  0  0  0  0
389445  1  0  0  0  0
390394  1  0  0  0  0
390446  1  0  0  0  0
391395  1  0  0  0  0
391447  1  0  0  0  0
392396  1  0  0  0  0
392448  1  0  0  0  0
393397  1  0  0  0  0
393441  1  0  0  0  0
394398  1  0  0  0  0
394442  1  0  0  0  0
395399  1  0  0  0  0
395443  1  0  0  0  0
396400  1  0  0  0  0
396444  1  0  0  0  0
397401  1  0  0  0  0
398402  1  0  0  0  0
399403  1  0  0  0  0
400404  1  0  0  0  0
401405  1  0  0  0  0
402406  1  0  0  0  0
403407  1  0  0  0  0
404408  1  0  0  0  0
405409  1  0  0  0  0
405437  1  0  0  0  0
406410  1  0  0  0  0
406438  1  0  0  0  0
407411  1  0  0  0  0
407439  1  0  0  0  0
408412  1  0  0  0  0
408440  1  0  0  0  0
409413  1  0  0  0  0
409433  1  0  0  0  0
410414  1  0  0  0  0
410434  1  0  0  0  0
411415  1  0  0  0  0
411435  1  0  0  0  0
412416  1  0  0  0  0
412436  1  0  0  0  0
413417  1  0  0  0  0
414418  1  0  0  0  0
415419  1  0  0  0  0
416420  1  0  0  0  0
417421  1  0  0  0  0
418422  1  0  0  0  0
419423  1  0  0  0  0
420424  1  0  0  0  0
421425  1  0  0  0  0
421429  1  0  0  0  0
422426  1  0  0  0  0
422430  1  0  0  0  0
423427  1  0  0  0  0
423431  1  0  0  0  0
424428  1  0  0  0  0
424432  1  0  0  0  0
425686  1  0  0  0  0
425690  1  0  0  0  0
426687  1  0  0  0  0
426691  1  0  0  0  0
427688  1  0  0  0  0
427692  1  0  0  0  0
428689  1  0  0  0  0
428693  1  0  0  0  0
429433  1  0  0  0  0
430434  1  0  0  0  0
431435  1  0  0  0  0
432436  1  0  0  0  0
437441  1  0  0  0  0
438442  1  0  0  0  0
439443  1  0  0  0  0
440444  1  0  0  0  0
445449  1  0  0  0  0
446450  1  0  0  0  0
447451  1  0  0  0  0
448452  1  0  0  0  0
457465  1  0  0  0  0
457694  1  0  0  0  0
457702  1  0  0  0  0
458466  1  0  0  0  0
458695  1  0  0  0  0
458703  1  0  0  0  0
459467  1  0  0  0  0
459696  1  0  0  0  0
459704  1  0  0  0  0
460468  1  0  0  0  0
460697  1  0  0  0  0
460705  1  0  0  0  0
461469  1  0  0  0  0
461698  1  0  0  0  0
461706  1  0  0  0  0
462470  1  0  0  0  0
462699  1  0  0  0  0
462707  1  0  0  0  0
463471  1  0  0  0  0
463700  1  0  0  0  0
463708  1  0  0  0  0
464472  1  0  0  0  0
464701  1  0  0  0  0
464709  1  0  0  0  0
465473  1  0  0  0  0
465545  1  0  0  0  0
466474  1  0  0  0  0
466546  1  0  0  0  0
467475  1  0  0  0  0
467547  1  0  0  0  0
468476  1  0  0  0  0
468548  1  0  0  0  0
469477  1  0  0  0  0
469549  1  0  0  0  0
470478  1  0  0  0  0
470550  1  0  0  0  0
471479  1  0  0  0  0
471551  1  0  0  0  0
472480  1  0  0  0  0
472552  1  0  0  0  0
473481  1  0  0  0  0
474482  1  0  0  0  0
477483  1  0  0  0  0
478484  1  0  0  0  0
481485  1  0  0  0  0
482486  1  0  0  0  0
483487  1  0  0  0  0
484488  1  0  0  0  0
485489  1  0  0  0  0
485541  1  0  0  0  0
486490  1  0  0  0  0
486542  1  0  0  0  0
487491  1  0  0  0  0
487543  1  0  0  0  0
488492  1  0  0  0  0
488544  1  0  0  0  0
489493  1  0  0  0  0
489537  1  0  0  0  0
490494  1  0  0  0  0
490538  1  0  0  0  0
491495  1  0  0  0  0
491539  1  0  0  0  0
492496  1  0  0  0  0
492540  1  0  0  0  0
493497  1  0  0  0  0
494498  1  0  0  0  0
495499  1  0  0  0  0
496500  1  0  0  0  0
497501  1  0  0  0  0
498502  1  0  0  0  0
499503  1  0  0  0  0
500504  1  0  0  0  0
501505  1  0  0  0  0
501533  1  0  0  0  0
502506  1  0  0  0  0
502534  1  0  0  0  0
503507  1  0  0  0  0
503535  1  0  0  0  0
504508  1  0  0  0  0
504536  1  0  0  0  0
505509  1  0  0  0  0
505529  1  0  0  0  0
506510  1  0  0  0  0
506530  1  0  0  0  0
507511  1  0  0  0  0
507531  1  0  0  0  0
508512  1  0  0  0  0
508532  1  0  0  0  0
509513  1  0  0  0  0
510514  1  0  0  0  0
511515  1  0  0  0  0
512516  1  0  0  0  0
513517  1  0  0  0  0
514518  1  0  0  0  0
515519  1  0  0  0  0
516520  1  0  0  0  0
517521  1  0  0  0  0
517525  1  0  0  0  0
518522  1  0  0  0  0
518526  1  0  0  0  0
519523  1  0  0  0  0
519527  1  0  0  0  0
520524  1  0  0  0  0
520528  1  0  0  0  0
521710  1  0  0  0  0
521714  1  0  0  0  0
522711  1  0  0  0  0
522715  1  0  0  0  0
523712  1  0  0  0  0
523716  1  0  0  0  0
524713  1  0  0  0  0
524717  1  0  0  0  0
525529  1  0  0  0  0
526530  1  0  0  0  0
527531  1  0  0  0  0
528532  1  0  0  0  0
533537  1  0  0  0  0
534538  1  0  0  0  0
535539  1  0  0  0  0
536540  1  0  0  0  0
541545  1  0  0  0  0
542546  1  0  0  0  0
543549  1  0  0  0  0
544550  1  0  0  0  0
553561  1  0  0  0  0
553718  1  0  0  0  0
553726  1  0  0  0  0
554562  1  0  0  0  0
554719  1  0  0  0  0
554727  1  0  0  0  0
555563  1  0  0  0  0
555720  1  0  0  0  0
555728  1  0  0  0  0
556564  1  0  0  0  0
556721  1  0  0  0  0
556729  1  0  0  0  0
557565  1  0  0  0  0
557722  1  0  0  0  0
557730  1  0  0  0  0
558566  1  0  0  0  0
558723  1  0  0  0  0
558731  1  0  0  0  0
559567  1  0  0  0  0
559724  1  0  0  0  0
559732  1  0  0  0  0
560568  1  0  0  0  0
560725  1  0  0  0  0
560733  1  0  0  0  0
561569  1  0  0  0  0
561641  1  0  0  0  0
562570  1  0  0  0  0
562642  1  0  0  0  0
563571  1  0  0  0  0
563643  1  0  0  0  0
564572  1  0  0  0  0
564644  1  0  0  0  0
565573  1  0  0  0  0
565645  1  0  0  0  0
566574  1  0  0  0  0
566646  1  0  0  0  0
567575  1  0  0  0  0
567647  1  0  0  0  0
568576  1  0  0  0  0
568648  1  0  0  0  0
569577  1  0  0  0  0
571578  1  0  0  0  0
573579  1  0  0  0  0
575580  1  0  0  0  0
577581  1  0  0  0  0
578582  1  0  0  0  0
579583  1  0  0  0  0
580584  1  0  0  0  0
581585  1  0  0  0  0
581637  1  0  0  0  0
582586  1  0  0  0  0
582638  1  0  0  0  0
583587  1  0  0  0  0
583639  1  0  0  0  0
584588  1  0  0  0  0
584640  1  0  0  0  0
585589  1  0  0  0  0
585633  1  0  0  0  0
586590  1  0  0  0  0
586634  1  0  0  0  0
587591  1  0  0  0  0
587635  1  0  0  0  0
588592  1  0  0  0  0
588636  1  0  0  0  0
589593  1  0  0  0  0
590594  1  0  0  0  0
591595  1  0  0  0  0
592596  1  0  0  0  0
593597  1  0  0  0  0
594598  1  0  0  0  0
595599  1  0  0  0  0
596600  1  0  0  0  0
597601  1  0  0  0  0
597629  1  0  0  0  0
598602  1  0  0  0  0
598630  1  0  0  0  0
599603  1  0  0  0  0
599631  1  0  0  0  0
600604  1  0  0  0  0
600632  1  0  0  0  0
601605  1  0  0  0  0
601625  1  0  0  0  0
602606  1  0  0  0  0
602626  1  0  0  0  0
603607  1  0  0  0  0
603627  1  0  0  0  0
604608  1  0  0  0  0
604628  1  0  0  0  0
605609  1  0  0  0  0
606610  1  0  0  0  0
607611  1  0  0  0  0
608612  1  0  0  0  0
609613  1  0  0  0  0
610614  1  0  0  0  0
611615  1  0  0  0  0
612616  1  0  0  0  0
613617  1  0  0  0  0
613621  1  0  0  0  0
614618  1  0  0  0  0
614622  1  0  0  0  0
615619  1  0  0  0  0
615623  1  0  0  0  0
616620  1  0  0  0  0
616624  1  0  0  0  0
617734  1  0  0  0  0
617738  1  0  0  0  0
618735  1  0  0  0  0
618739  1  0  0  0  0
619736  1  0  0  0  0
619740  1  0  0  0  0
620737  1  0  0  0  0
620741  1  0  0  0  0
621625  1  0  0  0  0
622626  1  0  0  0  0
623627  1  0  0  0  0
624628  1  0  0  0  0
629633  1  0  0  0  0
630634  1  0  0  0  0
631635  1  0  0  0  0
632636  1  0  0  0  0
637641  1  0  0  0  0
638643  1  0  0  0  0
639645  1  0  0  0  0
640647  1  0  0  0  0
M  END
$$$$
