tpdc_zn4o_pcu_ip2_off400
AtomForge visual export

868972  0  0  0  0            999 V2000
   11.6026    9.4892    9.5288 Zn  0  0  0  0  0  0  0  0  0  0  0  0
   11.6026   30.5752    9.5288 Zn  0  0  0  0  0  0  0  0  0  0  0  0
   32.6886    9.4892    9.5288 Zn  0  0  0  0  0  0  0  0  0  0  0  0
   32.6886   30.5752    9.5288 Zn  0  0  0  0  0  0  0  0  0  0  0  0
    9.4846   11.5974    9.5305 Zn  0  0  0  0  0  0  0  0  0  0  0  0
    9.4846   32.6834    9.5305 Zn  0  0  0  0  0  0  0  0  0  0  0  0
   30.5706   11.5974    9.5305 Zn  0  0  0  0  0  0  0  0  0  0  0  0
   30.5706   32.6834    9.5305 Zn  0  0  0  0  0  0  0  0  0  0  0  0
    9.4822    9.4877   11.5557 Zn  0  0  0  0  0  0  0  0  0  0  0  0
    9.4822   30.5737   11.5557 Zn  0  0  0  0  0  0  0  0  0  0  0  0
   30.5682    9.4877   11.5557 Zn  0  0  0  0  0  0  0  0  0  0  0  0
   30.5682   30.5737   11.5557 Zn  0  0  0  0  0  0  0  0  0  0  0  0
   11.6022   11.5977   11.5541 Zn  0  0  0  0  0  0  0  0  0  0  0  0
   11.6022   32.6837   11.5541 Zn  0  0  0  0  0  0  0  0  0  0  0  0
   32.6882   11.5977   11.5541 Zn  0  0  0  0  0  0  0  0  0  0  0  0
   32.6882   32.6837   11.5541 Zn  0  0  0  0  0  0  0  0  0  0  0  0
   20.0360   17.9218   17.9661 Zn  0  0  0  0  0  0  0  0  0  0  0  0
   20.0360   39.0078   17.9661 Zn  0  0  0  0  0  0  0  0  0  0  0  0
   41.1220   17.9218   17.9661 Zn  0  0  0  0  0  0  0  0  0  0  0  0
   41.1220   39.0078   17.9661 Zn  0  0  0  0  0  0  0  0  0  0  0  0
   17.9165   20.0317   17.9644 Zn  0  0  0  0  0  0  0  0  0  0  0  0
   17.9165   41.1177   17.9644 Zn  0  0  0  0  0  0  0  0  0  0  0  0
   39.0025   20.0317   17.9644 Zn  0  0  0  0  0  0  0  0  0  0  0  0
   39.0025   41.1177   17.9644 Zn  0  0  0  0  0  0  0  0  0  0  0  0
   17.9190   17.9230   19.9892 Zn  0  0  0  0  0  0  0  0  0  0  0  0
   17.9190   39.0090   19.9892 Zn  0  0  0  0  0  0  0  0  0  0  0  0
   39.0050   17.9230   19.9892 Zn  0  0  0  0  0  0  0  0  0  0  0  0
   39.0050   39.0090   19.9892 Zn  0  0  0  0  0  0  0  0  0  0  0  0
   20.0369   20.0317   19.9913 Zn  0  0  0  0  0  0  0  0  0  0  0  0
   20.0369   41.1177   19.9913 Zn  0  0  0  0  0  0  0  0  0  0  0  0
   41.1229   20.0317   19.9913 Zn  0  0  0  0  0  0  0  0  0  0  0  0
   41.1229   41.1177   19.9913 Zn  0  0  0  0  0  0  0  0  0  0  0  0
   15.5682   12.6772   10.6130 H   0  0  0  0  0  0  0  0  0  0  0  0
   15.5682   33.7632   10.6130 H   0  0  0  0  0  0  0  0  0  0  0  0
   36.6542   12.6772   10.6130 H   0  0  0  0  0  0  0  0  0  0  0  0
   36.6542   33.7632   10.6130 H   0  0  0  0  0  0  0  0  0  0  0  0
   18.0165   12.6858   10.5598 H   0  0  0  0  0  0  0  0  0  0  0  0
   18.0165   33.7718   10.5598 H   0  0  0  0  0  0  0  0  0  0  0  0
   39.1025   12.6858   10.5598 H   0  0  0  0  0  0  0  0  0  0  0  0
   39.1025   33.7718   10.5598 H   0  0  0  0  0  0  0  0  0  0  0  0
   19.8982    8.4028   10.5425 H   0  0  0  0  0  0  0  0  0  0  0  0
   19.8982   29.4888   10.5425 H   0  0  0  0  0  0  0  0  0  0  0  0
   40.9842    8.4028   10.5425 H   0  0  0  0  0  0  0  0  0  0  0  0
   40.9842   29.4888   10.5425 H   0  0  0  0  0  0  0  0  0  0  0  0
    1.1872    8.4025   10.5402 H   0  0  0  0  0  0  0  0  0  0  0  0
    1.1872   29.4885   10.5402 H   0  0  0  0  0  0  0  0  0  0  0  0
   22.2732    8.4025   10.5402 H   0  0  0  0  0  0  0  0  0  0  0  0
   22.2732   29.4885   10.5402 H   0  0  0  0  0  0  0  0  0  0  0  0
    3.0684    8.4017   10.5544 H   0  0  0  0  0  0  0  0  0  0  0  0
    3.0684   29.4877   10.5544 H   0  0  0  0  0  0  0  0  0  0  0  0
   24.1544    8.4017   10.5544 H   0  0  0  0  0  0  0  0  0  0  0  0
   24.1544   29.4877   10.5544 H   0  0  0  0  0  0  0  0  0  0  0  0
    5.5166    8.4092   10.6109 H   0  0  0  0  0  0  0  0  0  0  0  0
    5.5166   29.4952   10.6109 H   0  0  0  0  0  0  0  0  0  0  0  0
   26.6026    8.4092   10.6109 H   0  0  0  0  0  0  0  0  0  0  0  0
   26.6026   29.4952   10.6109 H   0  0  0  0  0  0  0  0  0  0  0  0
    5.5189   12.6747   10.4736 H   0  0  0  0  0  0  0  0  0  0  0  0
    5.5189   33.7607   10.4736 H   0  0  0  0  0  0  0  0  0  0  0  0
   26.6049   12.6747   10.4736 H   0  0  0  0  0  0  0  0  0  0  0  0
   26.6049   33.7607   10.4736 H   0  0  0  0  0  0  0  0  0  0  0  0
    3.0707   12.6853   10.5307 H   0  0  0  0  0  0  0  0  0  0  0  0
    3.0707   33.7713   10.5307 H   0  0  0  0  0  0  0  0  0  0  0  0
   24.1567   12.6853   10.5307 H   0  0  0  0  0  0  0  0  0  0  0  0
   24.1567   33.7713   10.5307 H   0  0  0  0  0  0  0  0  0  0  0  0
    1.1883   12.6861   10.5460 H   0  0  0  0  0  0  0  0  0  0  0  0
    1.1883   33.7721   10.5460 H   0  0  0  0  0  0  0  0  0  0  0  0
   22.2743   12.6861   10.5460 H   0  0  0  0  0  0  0  0  0  0  0  0
   22.2743   33.7721   10.5460 H   0  0  0  0  0  0  0  0  0  0  0  0
   19.8989   12.6860   10.5460 H   0  0  0  0  0  0  0  0  0  0  0  0
   19.8989   33.7720   10.5460 H   0  0  0  0  0  0  0  0  0  0  0  0
   40.9849   12.6860   10.5460 H   0  0  0  0  0  0  0  0  0  0  0  0
   40.9849   33.7720   10.5460 H   0  0  0  0  0  0  0  0  0  0  0  0
   18.0164    8.4026   10.5288 H   0  0  0  0  0  0  0  0  0  0  0  0
   18.0164   29.4886   10.5288 H   0  0  0  0  0  0  0  0  0  0  0  0
   39.1024    8.4026   10.5288 H   0  0  0  0  0  0  0  0  0  0  0  0
   39.1024   29.4886   10.5288 H   0  0  0  0  0  0  0  0  0  0  0  0
   15.5687    8.4116   10.4706 H   0  0  0  0  0  0  0  0  0  0  0  0
   15.5687   29.4976   10.4706 H   0  0  0  0  0  0  0  0  0  0  0  0
   36.6547    8.4116   10.4706 H   0  0  0  0  0  0  0  0  0  0  0  0
   36.6547   29.4976   10.4706 H   0  0  0  0  0  0  0  0  0  0  0  0
    8.4181   15.5437   10.4702 H   0  0  0  0  0  0  0  0  0  0  0  0
    8.4181   36.6297   10.4702 H   0  0  0  0  0  0  0  0  0  0  0  0
   29.5041   15.5437   10.4702 H   0  0  0  0  0  0  0  0  0  0  0  0
   29.5041   36.6297   10.4702 H   0  0  0  0  0  0  0  0  0  0  0  0
    8.4028   18.0015   10.5272 H   0  0  0  0  0  0  0  0  0  0  0  0
    8.4028   39.0875   10.5272 H   0  0  0  0  0  0  0  0  0  0  0  0
   29.4888   18.0015   10.5272 H   0  0  0  0  0  0  0  0  0  0  0  0
   29.4888   39.0875   10.5272 H   0  0  0  0  0  0  0  0  0  0  0  0
   12.6845   19.8983   10.5462 H   0  0  0  0  0  0  0  0  0  0  0  0
   12.6845   40.9843   10.5462 H   0  0  0  0  0  0  0  0  0  0  0  0
   33.7705   19.8983   10.5462 H   0  0  0  0  0  0  0  0  0  0  0  0
   33.7705   40.9843   10.5462 H   0  0  0  0  0  0  0  0  0  0  0  0
   12.6840    1.1870   10.5464 H   0  0  0  0  0  0  0  0  0  0  0  0
   12.6840   22.2730   10.5464 H   0  0  0  0  0  0  0  0  0  0  0  0
   33.7700    1.1870   10.5464 H   0  0  0  0  0  0  0  0  0  0  0  0
   33.7700   22.2730   10.5464 H   0  0  0  0  0  0  0  0  0  0  0  0
   12.6824    3.0822   10.5312 H   0  0  0  0  0  0  0  0  0  0  0  0
   12.6824   24.1682   10.5312 H   0  0  0  0  0  0  0  0  0  0  0  0
   33.7684    3.0822   10.5312 H   0  0  0  0  0  0  0  0  0  0  0  0
   33.7684   24.1682   10.5312 H   0  0  0  0  0  0  0  0  0  0  0  0
   12.6669    5.5420   10.4736 H   0  0  0  0  0  0  0  0  0  0  0  0
   12.6669   26.6280   10.4736 H   0  0  0  0  0  0  0  0  0  0  0  0
   33.7529    5.5420   10.4736 H   0  0  0  0  0  0  0  0  0  0  0  0
   33.7529   26.6280   10.4736 H   0  0  0  0  0  0  0  0  0  0  0  0
    8.4174    5.5420   10.6110 H   0  0  0  0  0  0  0  0  0  0  0  0
    8.4174   26.6280   10.6110 H   0  0  0  0  0  0  0  0  0  0  0  0
   29.5034    5.5420   10.6110 H   0  0  0  0  0  0  0  0  0  0  0  0
   29.5034   26.6280   10.6110 H   0  0  0  0  0  0  0  0  0  0  0  0
    8.4024    3.0825   10.5542 H   0  0  0  0  0  0  0  0  0  0  0  0
    8.4024   24.1685   10.5542 H   0  0  0  0  0  0  0  0  0  0  0  0
   29.4884    3.0825   10.5542 H   0  0  0  0  0  0  0  0  0  0  0  0
   29.4884   24.1685   10.5542 H   0  0  0  0  0  0  0  0  0  0  0  0
    8.4019    1.1873   10.5398 H   0  0  0  0  0  0  0  0  0  0  0  0
    8.4019   22.2733   10.5398 H   0  0  0  0  0  0  0  0  0  0  0  0
   29.4879    1.1873   10.5398 H   0  0  0  0  0  0  0  0  0  0  0  0
   29.4879   22.2733   10.5398 H   0  0  0  0  0  0  0  0  0  0  0  0
    8.4023   19.8974   10.5420 H   0  0  0  0  0  0  0  0  0  0  0  0
    8.4023   40.9834   10.5420 H   0  0  0  0  0  0  0  0  0  0  0  0
   29.4883   19.8974   10.5420 H   0  0  0  0  0  0  0  0  0  0  0  0
   29.4883   40.9834   10.5420 H   0  0  0  0  0  0  0  0  0  0  0  0
   12.6840   18.0023   10.5599 H   0  0  0  0  0  0  0  0  0  0  0  0
   12.6840   39.0883   10.5599 H   0  0  0  0  0  0  0  0  0  0  0  0
   33.7700   18.0023   10.5599 H   0  0  0  0  0  0  0  0  0  0  0  0
   33.7700   39.0883   10.5599 H   0  0  0  0  0  0  0  0  0  0  0  0
   12.6691   15.5450   10.6151 H   0  0  0  0  0  0  0  0  0  0  0  0
   12.6691   36.6310   10.6151 H   0  0  0  0  0  0  0  0  0  0  0  0
   33.7551   15.5450   10.6151 H   0  0  0  0  0  0  0  0  0  0  0  0
   33.7551   36.6310   10.6151 H   0  0  0  0  0  0  0  0  0  0  0  0
   10.4702    8.4081   15.5656 H   0  0  0  0  0  0  0  0  0  0  0  0
   10.4702   29.4941   15.5656 H   0  0  0  0  0  0  0  0  0  0  0  0
   31.5562    8.4081   15.5656 H   0  0  0  0  0  0  0  0  0  0  0  0
   31.5562   29.4941   15.5656 H   0  0  0  0  0  0  0  0  0  0  0  0
   10.5306    8.3963   18.0003 H   0  0  0  0  0  0  0  0  0  0  0  0
   10.5306   29.4823   18.0003 H   0  0  0  0  0  0  0  0  0  0  0  0
   31.6166    8.3963   18.0003 H   0  0  0  0  0  0  0  0  0  0  0  0
   31.6166   29.4823   18.0003 H   0  0  0  0  0  0  0  0  0  0  0  0
   10.5471   12.6838   19.8995 H   0  0  0  0  0  0  0  0  0  0  0  0
   10.5471   33.7698   19.8995 H   0  0  0  0  0  0  0  0  0  0  0  0
   31.6331   12.6838   19.8995 H   0  0  0  0  0  0  0  0  0  0  0  0
   31.6331   33.7698   19.8995 H   0  0  0  0  0  0  0  0  0  0  0  0
   10.5468   12.6840    1.1878 H   0  0  0  0  0  0  0  0  0  0  0  0
   10.5468   33.7700    1.1878 H   0  0  0  0  0  0  0  0  0  0  0  0
   31.6328   12.6840    1.1878 H   0  0  0  0  0  0  0  0  0  0  0  0
   31.6328   33.7700    1.1878 H   0  0  0  0  0  0  0  0  0  0  0  0
   10.5324   12.6919    3.0870 H   0  0  0  0  0  0  0  0  0  0  0  0
   10.5324   33.7779    3.0870 H   0  0  0  0  0  0  0  0  0  0  0  0
   31.6184   12.6919    3.0870 H   0  0  0  0  0  0  0  0  0  0  0  0
   31.6184   33.7779    3.0870 H   0  0  0  0  0  0  0  0  0  0  0  0
   10.4712   12.6792    5.5210 H   0  0  0  0  0  0  0  0  0  0  0  0
   10.4712   33.7652    5.5210 H   0  0  0  0  0  0  0  0  0  0  0  0
   31.5572   12.6792    5.5210 H   0  0  0  0  0  0  0  0  0  0  0  0
   31.5572   33.7652    5.5210 H   0  0  0  0  0  0  0  0  0  0  0  0
   10.6136    8.4067    5.5202 H   0  0  0  0  0  0  0  0  0  0  0  0
   10.6136   29.4927    5.5202 H   0  0  0  0  0  0  0  0  0  0  0  0
   31.6996    8.4067    5.5202 H   0  0  0  0  0  0  0  0  0  0  0  0
   31.6996   29.4927    5.5202 H   0  0  0  0  0  0  0  0  0  0  0  0
   10.5554    8.3953    3.0859 H   0  0  0  0  0  0  0  0  0  0  0  0
   10.5554   29.4813    3.0859 H   0  0  0  0  0  0  0  0  0  0  0  0
   31.6414    8.3953    3.0859 H   0  0  0  0  0  0  0  0  0  0  0  0
   31.6414   29.4813    3.0859 H   0  0  0  0  0  0  0  0  0  0  0  0
   10.5417    8.4045    1.1872 H   0  0  0  0  0  0  0  0  0  0  0  0
   10.5417   29.4905    1.1872 H   0  0  0  0  0  0  0  0  0  0  0  0
   31.6277    8.4045    1.1872 H   0  0  0  0  0  0  0  0  0  0  0  0
   31.6277   29.4905    1.1872 H   0  0  0  0  0  0  0  0  0  0  0  0
   10.5434    8.4046   19.8991 H   0  0  0  0  0  0  0  0  0  0  0  0
   10.5434   29.4906   19.8991 H   0  0  0  0  0  0  0  0  0  0  0  0
   31.6294    8.4046   19.8991 H   0  0  0  0  0  0  0  0  0  0  0  0
   31.6294   29.4906   19.8991 H   0  0  0  0  0  0  0  0  0  0  0  0
   10.5601   12.6918   18.0003 H   0  0  0  0  0  0  0  0  0  0  0  0
   10.5601   33.7778   18.0003 H   0  0  0  0  0  0  0  0  0  0  0  0
   31.6461   12.6918   18.0003 H   0  0  0  0  0  0  0  0  0  0  0  0
   31.6461   33.7778   18.0003 H   0  0  0  0  0  0  0  0  0  0  0  0
   10.6155   12.6802   15.5650 H   0  0  0  0  0  0  0  0  0  0  0  0
   10.6155   33.7662   15.5650 H   0  0  0  0  0  0  0  0  0  0  0  0
   31.7015   12.6802   15.5650 H   0  0  0  0  0  0  0  0  0  0  0  0
   31.7015   33.7662   15.5650 H   0  0  0  0  0  0  0  0  0  0  0  0
    2.9170   21.1099   19.0496 H   0  0  0  0  0  0  0  0  0  0  0  0
   24.0030   21.1099   19.0496 H   0  0  0  0  0  0  0  0  0  0  0  0
    5.3653   21.1184   18.9928 H   0  0  0  0  0  0  0  0  0  0  0  0
   26.4513   21.1184   18.9928 H   0  0  0  0  0  0  0  0  0  0  0  0
    7.2463   16.8343   18.9773 H   0  0  0  0  0  0  0  0  0  0  0  0
    7.2463   37.9203   18.9773 H   0  0  0  0  0  0  0  0  0  0  0  0
   28.3323   16.8343   18.9773 H   0  0  0  0  0  0  0  0  0  0  0  0
   28.3323   37.9203   18.9773 H   0  0  0  0  0  0  0  0  0  0  0  0
    9.6222   16.8346   18.9739 H   0  0  0  0  0  0  0  0  0  0  0  0
    9.6222   37.9206   18.9739 H   0  0  0  0  0  0  0  0  0  0  0  0
   30.7082   16.8346   18.9739 H   0  0  0  0  0  0  0  0  0  0  0  0
   30.7082   37.9206   18.9739 H   0  0  0  0  0  0  0  0  0  0  0  0
   11.5051   16.8346   18.9882 H   0  0  0  0  0  0  0  0  0  0  0  0
   11.5051   37.9206   18.9882 H   0  0  0  0  0  0  0  0  0  0  0  0
   32.5911   16.8346   18.9882 H   0  0  0  0  0  0  0  0  0  0  0  0
   32.5911   37.9206   18.9882 H   0  0  0  0  0  0  0  0  0  0  0  0
   13.9531   16.8443   19.0446 H   0  0  0  0  0  0  0  0  0  0  0  0
   13.9531   37.9303   19.0446 H   0  0  0  0  0  0  0  0  0  0  0  0
   35.0391   16.8443   19.0446 H   0  0  0  0  0  0  0  0  0  0  0  0
   35.0391   37.9303   19.0446 H   0  0  0  0  0  0  0  0  0  0  0  0
   13.9508   21.1102   18.9092 H   0  0  0  0  0  0  0  0  0  0  0  0
   35.0368   21.1102   18.9092 H   0  0  0  0  0  0  0  0  0  0  0  0
   11.5032   21.1180   18.9652 H   0  0  0  0  0  0  0  0  0  0  0  0
   32.5892   21.1180   18.9652 H   0  0  0  0  0  0  0  0  0  0  0  0
    9.6219   21.1177   18.9783 H   0  0  0  0  0  0  0  0  0  0  0  0
   30.7079   21.1177   18.9783 H   0  0  0  0  0  0  0  0  0  0  0  0
    7.2470   21.1178   18.9786 H   0  0  0  0  0  0  0  0  0  0  0  0
   28.3330   21.1178   18.9786 H   0  0  0  0  0  0  0  0  0  0  0  0
    5.3643   16.8349   18.9629 H   0  0  0  0  0  0  0  0  0  0  0  0
    5.3643   37.9209   18.9629 H   0  0  0  0  0  0  0  0  0  0  0  0
   26.4503   16.8349   18.9629 H   0  0  0  0  0  0  0  0  0  0  0  0
   26.4503   37.9209   18.9629 H   0  0  0  0  0  0  0  0  0  0  0  0
    2.9162   16.8446   18.9076 H   0  0  0  0  0  0  0  0  0  0  0  0
    2.9162   37.9306   18.9076 H   0  0  0  0  0  0  0  0  0  0  0  0
   24.0022   16.8446   18.9076 H   0  0  0  0  0  0  0  0  0  0  0  0
   24.0022   37.9306   18.9076 H   0  0  0  0  0  0  0  0  0  0  0  0
   16.8526    2.8928   18.9066 H   0  0  0  0  0  0  0  0  0  0  0  0
   16.8526   23.9788   18.9066 H   0  0  0  0  0  0  0  0  0  0  0  0
   37.9386    2.8928   18.9066 H   0  0  0  0  0  0  0  0  0  0  0  0
   37.9386   23.9788   18.9066 H   0  0  0  0  0  0  0  0  0  0  0  0
   16.8378    5.3526   18.9632 H   0  0  0  0  0  0  0  0  0  0  0  0
   16.8378   26.4386   18.9632 H   0  0  0  0  0  0  0  0  0  0  0  0
   37.9238    5.3526   18.9632 H   0  0  0  0  0  0  0  0  0  0  0  0
   37.9238   26.4386   18.9632 H   0  0  0  0  0  0  0  0  0  0  0  0
   21.1185    7.2469   18.9790 H   0  0  0  0  0  0  0  0  0  0  0  0
   21.1185   28.3329   18.9790 H   0  0  0  0  0  0  0  0  0  0  0  0
   21.1183    9.6227   18.9790 H   0  0  0  0  0  0  0  0  0  0  0  0
   21.1183   30.7087   18.9790 H   0  0  0  0  0  0  0  0  0  0  0  0
   21.1179   11.5181   18.9649 H   0  0  0  0  0  0  0  0  0  0  0  0
   21.1179   32.6041   18.9649 H   0  0  0  0  0  0  0  0  0  0  0  0
   21.1035   13.9760   18.9089 H   0  0  0  0  0  0  0  0  0  0  0  0
   21.1035   35.0620   18.9089 H   0  0  0  0  0  0  0  0  0  0  0  0
   16.8522   13.9759   19.0455 H   0  0  0  0  0  0  0  0  0  0  0  0
   16.8522   35.0619   19.0455 H   0  0  0  0  0  0  0  0  0  0  0  0
   37.9382   13.9759   19.0455 H   0  0  0  0  0  0  0  0  0  0  0  0
   37.9382   35.0619   19.0455 H   0  0  0  0  0  0  0  0  0  0  0  0
   16.8366   11.5190   18.9884 H   0  0  0  0  0  0  0  0  0  0  0  0
   16.8366   32.6050   18.9884 H   0  0  0  0  0  0  0  0  0  0  0  0
   37.9226   11.5190   18.9884 H   0  0  0  0  0  0  0  0  0  0  0  0
   37.9226   32.6050   18.9884 H   0  0  0  0  0  0  0  0  0  0  0  0
   16.8362    9.6227   18.9739 H   0  0  0  0  0  0  0  0  0  0  0  0
   16.8362   30.7087   18.9739 H   0  0  0  0  0  0  0  0  0  0  0  0
   37.9222    9.6227   18.9739 H   0  0  0  0  0  0  0  0  0  0  0  0
   37.9222   30.7087   18.9739 H   0  0  0  0  0  0  0  0  0  0  0  0
   16.8365    7.2476   18.9768 H   0  0  0  0  0  0  0  0  0  0  0  0
   16.8365   28.3336   18.9768 H   0  0  0  0  0  0  0  0  0  0  0  0
   37.9225    7.2476   18.9768 H   0  0  0  0  0  0  0  0  0  0  0  0
   37.9225   28.3336   18.9768 H   0  0  0  0  0  0  0  0  0  0  0  0
   21.1177    5.3515   18.9936 H   0  0  0  0  0  0  0  0  0  0  0  0
   21.1177   26.4375   18.9936 H   0  0  0  0  0  0  0  0  0  0  0  0
   21.1020    2.8920   19.0498 H   0  0  0  0  0  0  0  0  0  0  0  0
   21.1020   23.9780   19.0498 H   0  0  0  0  0  0  0  0  0  0  0  0
   18.9048   16.8411    2.9133 H   0  0  0  0  0  0  0  0  0  0  0  0
   18.9048   37.9271    2.9133 H   0  0  0  0  0  0  0  0  0  0  0  0
   39.9908   16.8411    2.9133 H   0  0  0  0  0  0  0  0  0  0  0  0
   39.9908   37.9271    2.9133 H   0  0  0  0  0  0  0  0  0  0  0  0
   18.9621   16.8285    5.3473 H   0  0  0  0  0  0  0  0  0  0  0  0
   18.9621   37.9145    5.3473 H   0  0  0  0  0  0  0  0  0  0  0  0
   40.0481   16.8285    5.3473 H   0  0  0  0  0  0  0  0  0  0  0  0
   40.0481   37.9145    5.3473 H   0  0  0  0  0  0  0  0  0  0  0  0
   18.9772   21.1159    7.2472 H   0  0  0  0  0  0  0  0  0  0  0  0
   40.0632   21.1159    7.2472 H   0  0  0  0  0  0  0  0  0  0  0  0
   18.9774   21.1158    9.6211 H   0  0  0  0  0  0  0  0  0  0  0  0
   40.0634   21.1158    9.6211 H   0  0  0  0  0  0  0  0  0  0  0  0
   18.9649   21.1240   11.5200 H   0  0  0  0  0  0  0  0  0  0  0  0
   40.0509   21.1240   11.5200 H   0  0  0  0  0  0  0  0  0  0  0  0
   18.9066   21.1123   13.9548 H   0  0  0  0  0  0  0  0  0  0  0  0
   39.9926   21.1123   13.9548 H   0  0  0  0  0  0  0  0  0  0  0  0
   19.0459   16.8399   13.9555 H   0  0  0  0  0  0  0  0  0  0  0  0
   19.0459   37.9259   13.9555 H   0  0  0  0  0  0  0  0  0  0  0  0
   40.1319   16.8399   13.9555 H   0  0  0  0  0  0  0  0  0  0  0  0
   40.1319   37.9259   13.9555 H   0  0  0  0  0  0  0  0  0  0  0  0
   18.9863   16.8283   11.5206 H   0  0  0  0  0  0  0  0  0  0  0  0
   18.9863   37.9143   11.5206 H   0  0  0  0  0  0  0  0  0  0  0  0
   40.0723   16.8283   11.5206 H   0  0  0  0  0  0  0  0  0  0  0  0
   40.0723   37.9143   11.5206 H   0  0  0  0  0  0  0  0  0  0  0  0
   18.9731   16.8367    9.6213 H   0  0  0  0  0  0  0  0  0  0  0  0
   18.9731   37.9227    9.6213 H   0  0  0  0  0  0  0  0  0  0  0  0
   40.0591   16.8367    9.6213 H   0  0  0  0  0  0  0  0  0  0  0  0
   40.0591   37.9227    9.6213 H   0  0  0  0  0  0  0  0  0  0  0  0
   18.9760   16.8364    7.2466 H   0  0  0  0  0  0  0  0  0  0  0  0
   18.9760   37.9224    7.2466 H   0  0  0  0  0  0  0  0  0  0  0  0
   40.0620   16.8364    7.2466 H   0  0  0  0  0  0  0  0  0  0  0  0
   40.0620   37.9224    7.2466 H   0  0  0  0  0  0  0  0  0  0  0  0
   18.9910   21.1250    5.3483 H   0  0  0  0  0  0  0  0  0  0  0  0
   40.0770   21.1250    5.3483 H   0  0  0  0  0  0  0  0  0  0  0  0
   19.0514   21.1135    2.9141 H   0  0  0  0  0  0  0  0  0  0  0  0
   40.1374   21.1135    2.9141 H   0  0  0  0  0  0  0  0  0  0  0  0
   13.9610   10.5429   10.5429 C   0  0  0  0  0  0  0  0  0  0  0  0
   13.9610   31.6289   10.5429 C   0  0  0  0  0  0  0  0  0  0  0  0
   35.0470   10.5429   10.5429 C   0  0  0  0  0  0  0  0  0  0  0  0
   35.0470   31.6289   10.5429 C   0  0  0  0  0  0  0  0  0  0  0  0
   15.4328   10.5443   10.5415 C   0  0  0  0  0  0  0  0  0  0  0  0
   15.4328   31.6303   10.5415 C   0  0  0  0  0  0  0  0  0  0  0  0
   36.5188   10.5443   10.5415 C   0  0  0  0  0  0  0  0  0  0  0  0
   36.5188   31.6303   10.5415 C   0  0  0  0  0  0  0  0  0  0  0  0
   16.1219   11.7506   10.5808 C   0  0  0  0  0  0  0  0  0  0  0  0
   16.1219   32.8366   10.5808 C   0  0  0  0  0  0  0  0  0  0  0  0
   37.2079   11.7506   10.5808 C   0  0  0  0  0  0  0  0  0  0  0  0
   37.2079   32.8366   10.5808 C   0  0  0  0  0  0  0  0  0  0  0  0
   17.4963   11.7436   10.5589 C   0  0  0  0  0  0  0  0  0  0  0  0
   17.4963   32.8296   10.5589 C   0  0  0  0  0  0  0  0  0  0  0  0
   38.5823   11.7436   10.5589 C   0  0  0  0  0  0  0  0  0  0  0  0
   38.5823   32.8296   10.5589 C   0  0  0  0  0  0  0  0  0  0  0  0
   18.2135   10.5445   10.5432 C   0  0  0  0  0  0  0  0  0  0  0  0
   18.2135   31.6305   10.5432 C   0  0  0  0  0  0  0  0  0  0  0  0
   39.2995   10.5445   10.5432 C   0  0  0  0  0  0  0  0  0  0  0  0
   39.2995   31.6305   10.5432 C   0  0  0  0  0  0  0  0  0  0  0  0
   19.6736   10.5446   10.5436 C   0  0  0  0  0  0  0  0  0  0  0  0
   19.6736   31.6306   10.5436 C   0  0  0  0  0  0  0  0  0  0  0  0
   40.7596   10.5446   10.5436 C   0  0  0  0  0  0  0  0  0  0  0  0
   40.7596   31.6306   10.5436 C   0  0  0  0  0  0  0  0  0  0  0  0
   20.3999    9.3544   10.5424 C   0  0  0  0  0  0  0  0  0  0  0  0
   20.3999   30.4404   10.5424 C   0  0  0  0  0  0  0  0  0  0  0  0
   41.4859    9.3544   10.5424 C   0  0  0  0  0  0  0  0  0  0  0  0
   41.4859   30.4404   10.5424 C   0  0  0  0  0  0  0  0  0  0  0  0
    0.6860    9.3544   10.5416 C   0  0  0  0  0  0  0  0  0  0  0  0
    0.6860   30.4404   10.5416 C   0  0  0  0  0  0  0  0  0  0  0  0
   21.7720    9.3544   10.5416 C   0  0  0  0  0  0  0  0  0  0  0  0
   21.7720   30.4404   10.5416 C   0  0  0  0  0  0  0  0  0  0  0  0
    1.4126   10.5443   10.5426 C   0  0  0  0  0  0  0  0  0  0  0  0
    1.4126   31.6303   10.5426 C   0  0  0  0  0  0  0  0  0  0  0  0
   22.4986   10.5443   10.5426 C   0  0  0  0  0  0  0  0  0  0  0  0
   22.4986   31.6303   10.5426 C   0  0  0  0  0  0  0  0  0  0  0  0
    2.8727   10.5436   10.5425 C   0  0  0  0  0  0  0  0  0  0  0  0
    2.8727   31.6296   10.5425 C   0  0  0  0  0  0  0  0  0  0  0  0
   23.9587   10.5436   10.5425 C   0  0  0  0  0  0  0  0  0  0  0  0
   23.9587   31.6296   10.5425 C   0  0  0  0  0  0  0  0  0  0  0  0
    3.5889    9.3439   10.5570 C   0  0  0  0  0  0  0  0  0  0  0  0
    3.5889   30.4299   10.5570 C   0  0  0  0  0  0  0  0  0  0  0  0
   24.6749    9.3439   10.5570 C   0  0  0  0  0  0  0  0  0  0  0  0
   24.6749   30.4299   10.5570 C   0  0  0  0  0  0  0  0  0  0  0  0
    4.9633    9.3360   10.5798 C   0  0  0  0  0  0  0  0  0  0  0  0
    4.9633   30.4220   10.5798 C   0  0  0  0  0  0  0  0  0  0  0  0
   26.0493    9.3360   10.5798 C   0  0  0  0  0  0  0  0  0  0  0  0
   26.0493   30.4220   10.5798 C   0  0  0  0  0  0  0  0  0  0  0  0
    5.6533   10.5420   10.5425 C   0  0  0  0  0  0  0  0  0  0  0  0
    5.6533   31.6280   10.5425 C   0  0  0  0  0  0  0  0  0  0  0  0
   26.7393   10.5420   10.5425 C   0  0  0  0  0  0  0  0  0  0  0  0
   26.7393   31.6280   10.5425 C   0  0  0  0  0  0  0  0  0  0  0  0
    7.1249   10.5407   10.5437 C   0  0  0  0  0  0  0  0  0  0  0  0
    7.1249   31.6267   10.5437 C   0  0  0  0  0  0  0  0  0  0  0  0
   28.2109   10.5407   10.5437 C   0  0  0  0  0  0  0  0  0  0  0  0
   28.2109   31.6267   10.5437 C   0  0  0  0  0  0  0  0  0  0  0  0
    4.9645   11.7486   10.5046 C   0  0  0  0  0  0  0  0  0  0  0  0
    4.9645   32.8346   10.5046 C   0  0  0  0  0  0  0  0  0  0  0  0
   26.0505   11.7486   10.5046 C   0  0  0  0  0  0  0  0  0  0  0  0
   26.0505   32.8346   10.5046 C   0  0  0  0  0  0  0  0  0  0  0  0
    3.5901   11.7427   10.5279 C   0  0  0  0  0  0  0  0  0  0  0  0
    3.5901   32.8287   10.5279 C   0  0  0  0  0  0  0  0  0  0  0  0
   24.6761   11.7427   10.5279 C   0  0  0  0  0  0  0  0  0  0  0  0
   24.6761   32.8287   10.5279 C   0  0  0  0  0  0  0  0  0  0  0  0
    0.6865   11.7346   10.5440 C   0  0  0  0  0  0  0  0  0  0  0  0
    0.6865   32.8206   10.5440 C   0  0  0  0  0  0  0  0  0  0  0  0
   21.7725   11.7346   10.5440 C   0  0  0  0  0  0  0  0  0  0  0  0
   21.7725   32.8206   10.5440 C   0  0  0  0  0  0  0  0  0  0  0  0
   20.4004   11.7344   10.5444 C   0  0  0  0  0  0  0  0  0  0  0  0
   20.4004   32.8204   10.5444 C   0  0  0  0  0  0  0  0  0  0  0  0
   41.4864   11.7344   10.5444 C   0  0  0  0  0  0  0  0  0  0  0  0
   41.4864   32.8204   10.5444 C   0  0  0  0  0  0  0  0  0  0  0  0
   17.4967    9.3452   10.5267 C   0  0  0  0  0  0  0  0  0  0  0  0
   17.4967   30.4312   10.5267 C   0  0  0  0  0  0  0  0  0  0  0  0
   38.5827    9.3452   10.5267 C   0  0  0  0  0  0  0  0  0  0  0  0
   38.5827   30.4312   10.5267 C   0  0  0  0  0  0  0  0  0  0  0  0
   16.1223    9.3381   10.5029 C   0  0  0  0  0  0  0  0  0  0  0  0
   16.1223   30.4241   10.5029 C   0  0  0  0  0  0  0  0  0  0  0  0
   37.2083    9.3381   10.5029 C   0  0  0  0  0  0  0  0  0  0  0  0
   37.2083   30.4241   10.5029 C   0  0  0  0  0  0  0  0  0  0  0  0
   10.5431   13.9518   10.5445 C   0  0  0  0  0  0  0  0  0  0  0  0
   10.5431   35.0378   10.5445 C   0  0  0  0  0  0  0  0  0  0  0  0
   31.6291   13.9518   10.5445 C   0  0  0  0  0  0  0  0  0  0  0  0
   31.6291   35.0378   10.5445 C   0  0  0  0  0  0  0  0  0  0  0  0
   10.5435   15.4224   10.5435 C   0  0  0  0  0  0  0  0  0  0  0  0
   10.5435   36.5084   10.5435 C   0  0  0  0  0  0  0  0  0  0  0  0
   31.6295   15.4224   10.5435 C   0  0  0  0  0  0  0  0  0  0  0  0
   31.6295   36.5084   10.5435 C   0  0  0  0  0  0  0  0  0  0  0  0
    9.3386   16.1076   10.5021 C   0  0  0  0  0  0  0  0  0  0  0  0
    9.3386   37.1936   10.5021 C   0  0  0  0  0  0  0  0  0  0  0  0
   30.4246   16.1076   10.5021 C   0  0  0  0  0  0  0  0  0  0  0  0
   30.4246   37.1936   10.5021 C   0  0  0  0  0  0  0  0  0  0  0  0
    9.3457   17.4833   10.5269 C   0  0  0  0  0  0  0  0  0  0  0  0
    9.3457   38.5693   10.5269 C   0  0  0  0  0  0  0  0  0  0  0  0
   30.4317   17.4833   10.5269 C   0  0  0  0  0  0  0  0  0  0  0  0
   30.4317   38.5693   10.5269 C   0  0  0  0  0  0  0  0  0  0  0  0
   10.5433   18.2045   10.5437 C   0  0  0  0  0  0  0  0  0  0  0  0
   10.5433   39.2905   10.5437 C   0  0  0  0  0  0  0  0  0  0  0  0
   31.6293   18.2045   10.5437 C   0  0  0  0  0  0  0  0  0  0  0  0
   31.6293   39.2905   10.5437 C   0  0  0  0  0  0  0  0  0  0  0  0
   10.5432   19.6691   10.5436 C   0  0  0  0  0  0  0  0  0  0  0  0
   10.5432   40.7551   10.5436 C   0  0  0  0  0  0  0  0  0  0  0  0
   31.6292   19.6691   10.5436 C   0  0  0  0  0  0  0  0  0  0  0  0
   31.6292   40.7551   10.5436 C   0  0  0  0  0  0  0  0  0  0  0  0
   11.7320   20.3986   10.5446 C   0  0  0  0  0  0  0  0  0  0  0  0
   11.7320   41.4846   10.5446 C   0  0  0  0  0  0  0  0  0  0  0  0
   32.8180   20.3986   10.5446 C   0  0  0  0  0  0  0  0  0  0  0  0
   32.8180   41.4846   10.5446 C   0  0  0  0  0  0  0  0  0  0  0  0
   11.7316    0.6864   10.5444 C   0  0  0  0  0  0  0  0  0  0  0  0
   11.7316   21.7724   10.5444 C   0  0  0  0  0  0  0  0  0  0  0  0
   32.8176    0.6864   10.5444 C   0  0  0  0  0  0  0  0  0  0  0  0
   32.8176   21.7724   10.5444 C   0  0  0  0  0  0  0  0  0  0  0  0
   10.5428    1.4159   10.5427 C   0  0  0  0  0  0  0  0  0  0  0  0
   10.5428   22.5019   10.5427 C   0  0  0  0  0  0  0  0  0  0  0  0
   31.6288    1.4159   10.5427 C   0  0  0  0  0  0  0  0  0  0  0  0
   31.6288   22.5019   10.5427 C   0  0  0  0  0  0  0  0  0  0  0  0
   10.5424    2.8803   10.5424 C   0  0  0  0  0  0  0  0  0  0  0  0
   10.5424   23.9663   10.5424 C   0  0  0  0  0  0  0  0  0  0  0  0
   31.6284    2.8803   10.5424 C   0  0  0  0  0  0  0  0  0  0  0  0
   31.6284   23.9663   10.5424 C   0  0  0  0  0  0  0  0  0  0  0  0
   11.7400    3.6016   10.5281 C   0  0  0  0  0  0  0  0  0  0  0  0
   11.7400   24.6876   10.5281 C   0  0  0  0  0  0  0  0  0  0  0  0
   32.8260    3.6016   10.5281 C   0  0  0  0  0  0  0  0  0  0  0  0
   32.8260   24.6876   10.5281 C   0  0  0  0  0  0  0  0  0  0  0  0
   11.7468    4.9773   10.5034 C   0  0  0  0  0  0  0  0  0  0  0  0
   11.7468   26.0633   10.5034 C   0  0  0  0  0  0  0  0  0  0  0  0
   32.8328    4.9773   10.5034 C   0  0  0  0  0  0  0  0  0  0  0  0
   32.8328   26.0633   10.5034 C   0  0  0  0  0  0  0  0  0  0  0  0
   10.5422    5.6629   10.5428 C   0  0  0  0  0  0  0  0  0  0  0  0
   10.5422   26.7489   10.5428 C   0  0  0  0  0  0  0  0  0  0  0  0
   31.6282    5.6629   10.5428 C   0  0  0  0  0  0  0  0  0  0  0  0
   31.6282   26.7489   10.5428 C   0  0  0  0  0  0  0  0  0  0  0  0
   10.5429    7.1336   10.5449 C   0  0  0  0  0  0  0  0  0  0  0  0
   10.5429   28.2196   10.5449 C   0  0  0  0  0  0  0  0  0  0  0  0
   31.6289    7.1336   10.5449 C   0  0  0  0  0  0  0  0  0  0  0  0
   31.6289   28.2196   10.5449 C   0  0  0  0  0  0  0  0  0  0  0  0
    9.3376    4.9774   10.5813 C   0  0  0  0  0  0  0  0  0  0  0  0
    9.3376   26.0634   10.5813 C   0  0  0  0  0  0  0  0  0  0  0  0
   30.4236    4.9774   10.5813 C   0  0  0  0  0  0  0  0  0  0  0  0
   30.4236   26.0634   10.5813 C   0  0  0  0  0  0  0  0  0  0  0  0
    9.3449    3.6017   10.5564 C   0  0  0  0  0  0  0  0  0  0  0  0
    9.3449   24.6877   10.5564 C   0  0  0  0  0  0  0  0  0  0  0  0
   30.4309    3.6017   10.5564 C   0  0  0  0  0  0  0  0  0  0  0  0
   30.4309   24.6877   10.5564 C   0  0  0  0  0  0  0  0  0  0  0  0
    9.3541    0.6862   10.5416 C   0  0  0  0  0  0  0  0  0  0  0  0
    9.3541   21.7722   10.5416 C   0  0  0  0  0  0  0  0  0  0  0  0
   30.4401    0.6862   10.5416 C   0  0  0  0  0  0  0  0  0  0  0  0
   30.4401   21.7722   10.5416 C   0  0  0  0  0  0  0  0  0  0  0  0
    9.3543   20.3985   10.5423 C   0  0  0  0  0  0  0  0  0  0  0  0
    9.3543   41.4845   10.5423 C   0  0  0  0  0  0  0  0  0  0  0  0
   30.4403   20.3985   10.5423 C   0  0  0  0  0  0  0  0  0  0  0  0
   30.4403   41.4845   10.5423 C   0  0  0  0  0  0  0  0  0  0  0  0
   11.7410   17.4838   10.5599 C   0  0  0  0  0  0  0  0  0  0  0  0
   11.7410   38.5698   10.5599 C   0  0  0  0  0  0  0  0  0  0  0  0
   32.8270   17.4838   10.5599 C   0  0  0  0  0  0  0  0  0  0  0  0
   32.8270   38.5698   10.5599 C   0  0  0  0  0  0  0  0  0  0  0  0
   11.7481   16.1081   10.5842 C   0  0  0  0  0  0  0  0  0  0  0  0
   11.7481   37.1941   10.5842 C   0  0  0  0  0  0  0  0  0  0  0  0
   32.8341   16.1081   10.5842 C   0  0  0  0  0  0  0  0  0  0  0  0
   32.8341   37.1941   10.5842 C   0  0  0  0  0  0  0  0  0  0  0  0
   10.5415   10.5427   13.9327 C   0  0  0  0  0  0  0  0  0  0  0  0
   10.5415   31.6287   13.9327 C   0  0  0  0  0  0  0  0  0  0  0  0
   31.6275   10.5427   13.9327 C   0  0  0  0  0  0  0  0  0  0  0  0
   31.6275   31.6287   13.9327 C   0  0  0  0  0  0  0  0  0  0  0  0
   10.5421   10.5441   15.4147 C   0  0  0  0  0  0  0  0  0  0  0  0
   10.5421   31.6301   15.4147 C   0  0  0  0  0  0  0  0  0  0  0  0
   31.6281   10.5441   15.4147 C   0  0  0  0  0  0  0  0  0  0  0  0
   31.6281   31.6301   15.4147 C   0  0  0  0  0  0  0  0  0  0  0  0
   10.5026    9.3407   16.1096 C   0  0  0  0  0  0  0  0  0  0  0  0
   10.5026   30.4267   16.1096 C   0  0  0  0  0  0  0  0  0  0  0  0
   31.5886    9.3407   16.1096 C   0  0  0  0  0  0  0  0  0  0  0  0
   31.5886   30.4267   16.1096 C   0  0  0  0  0  0  0  0  0  0  0  0
   10.5283    9.3451   17.4867 C   0  0  0  0  0  0  0  0  0  0  0  0
   10.5283   30.4311   17.4867 C   0  0  0  0  0  0  0  0  0  0  0  0
   31.6143    9.3451   17.4867 C   0  0  0  0  0  0  0  0  0  0  0  0
   31.6143   30.4311   17.4867 C   0  0  0  0  0  0  0  0  0  0  0  0
   10.5447   10.5443   18.2060 C   0  0  0  0  0  0  0  0  0  0  0  0
   10.5447   31.6303   18.2060 C   0  0  0  0  0  0  0  0  0  0  0  0
   31.6307   10.5443   18.2060 C   0  0  0  0  0  0  0  0  0  0  0  0
   31.6307   31.6303   18.2060 C   0  0  0  0  0  0  0  0  0  0  0  0
   10.5450   10.5444   19.6691 C   0  0  0  0  0  0  0  0  0  0  0  0
   10.5450   31.6304   19.6691 C   0  0  0  0  0  0  0  0  0  0  0  0
   31.6310   10.5444   19.6691 C   0  0  0  0  0  0  0  0  0  0  0  0
   31.6310   31.6304   19.6691 C   0  0  0  0  0  0  0  0  0  0  0  0
   10.5457   11.7318   20.4003 C   0  0  0  0  0  0  0  0  0  0  0  0
   10.5457   32.8178   20.4003 C   0  0  0  0  0  0  0  0  0  0  0  0
   31.6317   11.7318   20.4003 C   0  0  0  0  0  0  0  0  0  0  0  0
   31.6317   32.8178   20.4003 C   0  0  0  0  0  0  0  0  0  0  0  0
   10.5451   11.7320    0.6874 C   0  0  0  0  0  0  0  0  0  0  0  0
   10.5451   32.8180    0.6874 C   0  0  0  0  0  0  0  0  0  0  0  0
   31.6311   11.7320    0.6874 C   0  0  0  0  0  0  0  0  0  0  0  0
   31.6311   32.8180    0.6874 C   0  0  0  0  0  0  0  0  0  0  0  0
   10.5437   10.5442    1.4179 C   0  0  0  0  0  0  0  0  0  0  0  0
   10.5437   31.6302    1.4179 C   0  0  0  0  0  0  0  0  0  0  0  0
   31.6297   10.5442    1.4179 C   0  0  0  0  0  0  0  0  0  0  0  0
   31.6297   31.6302    1.4179 C   0  0  0  0  0  0  0  0  0  0  0  0
   10.5432   10.5438    2.8809 C   0  0  0  0  0  0  0  0  0  0  0  0
   10.5432   31.6298    2.8809 C   0  0  0  0  0  0  0  0  0  0  0  0
   31.6292   10.5438    2.8809 C   0  0  0  0  0  0  0  0  0  0  0  0
   31.6292   31.6298    2.8809 C   0  0  0  0  0  0  0  0  0  0  0  0
   10.5281   11.7431    3.6001 C   0  0  0  0  0  0  0  0  0  0  0  0
   10.5281   32.8291    3.6001 C   0  0  0  0  0  0  0  0  0  0  0  0
   31.6141   11.7431    3.6001 C   0  0  0  0  0  0  0  0  0  0  0  0
   31.6141   32.8291    3.6001 C   0  0  0  0  0  0  0  0  0  0  0  0
   10.5024   11.7466    4.9773 C   0  0  0  0  0  0  0  0  0  0  0  0
   10.5024   32.8326    4.9773 C   0  0  0  0  0  0  0  0  0  0  0  0
   31.5884   11.7466    4.9773 C   0  0  0  0  0  0  0  0  0  0  0  0
   31.5884   32.8326    4.9773 C   0  0  0  0  0  0  0  0  0  0  0  0
   10.5420   10.5428    5.6716 C   0  0  0  0  0  0  0  0  0  0  0  0
   10.5420   31.6288    5.6716 C   0  0  0  0  0  0  0  0  0  0  0  0
   31.6280   10.5428    5.6716 C   0  0  0  0  0  0  0  0  0  0  0  0
   31.6280   31.6288    5.6716 C   0  0  0  0  0  0  0  0  0  0  0  0
   10.5424   10.5416    7.1533 C   0  0  0  0  0  0  0  0  0  0  0  0
   10.5424   31.6276    7.1533 C   0  0  0  0  0  0  0  0  0  0  0  0
   31.6284   10.5416    7.1533 C   0  0  0  0  0  0  0  0  0  0  0  0
   31.6284   31.6276    7.1533 C   0  0  0  0  0  0  0  0  0  0  0  0
   10.5821    9.3394    4.9766 C   0  0  0  0  0  0  0  0  0  0  0  0
   10.5821   30.4254    4.9766 C   0  0  0  0  0  0  0  0  0  0  0  0
   31.6681    9.3394    4.9766 C   0  0  0  0  0  0  0  0  0  0  0  0
   31.6681   30.4254    4.9766 C   0  0  0  0  0  0  0  0  0  0  0  0
   10.5578    9.3442    3.5995 C   0  0  0  0  0  0  0  0  0  0  0  0
   10.5578   30.4302    3.5995 C   0  0  0  0  0  0  0  0  0  0  0  0
   31.6438    9.3442    3.5995 C   0  0  0  0  0  0  0  0  0  0  0  0
   31.6438   30.4302    3.5995 C   0  0  0  0  0  0  0  0  0  0  0  0
   10.5431    9.3567    0.6870 C   0  0  0  0  0  0  0  0  0  0  0  0
   10.5431   30.4427    0.6870 C   0  0  0  0  0  0  0  0  0  0  0  0
   31.6291    9.3567    0.6870 C   0  0  0  0  0  0  0  0  0  0  0  0
   31.6291   30.4427    0.6870 C   0  0  0  0  0  0  0  0  0  0  0  0
   10.5438    9.3568   20.3998 C   0  0  0  0  0  0  0  0  0  0  0  0
   10.5438   30.4428   20.3998 C   0  0  0  0  0  0  0  0  0  0  0  0
   31.6298    9.3568   20.3998 C   0  0  0  0  0  0  0  0  0  0  0  0
   31.6298   30.4428   20.3998 C   0  0  0  0  0  0  0  0  0  0  0  0
   10.5604   11.7433   17.4862 C   0  0  0  0  0  0  0  0  0  0  0  0
   10.5604   32.8293   17.4862 C   0  0  0  0  0  0  0  0  0  0  0  0
   31.6464   11.7433   17.4862 C   0  0  0  0  0  0  0  0  0  0  0  0
   31.6464   32.8293   17.4862 C   0  0  0  0  0  0  0  0  0  0  0  0
   10.5836   11.7477   16.1091 C   0  0  0  0  0  0  0  0  0  0  0  0
   10.5836   32.8337   16.1091 C   0  0  0  0  0  0  0  0  0  0  0  0
   31.6696   11.7477   16.1091 C   0  0  0  0  0  0  0  0  0  0  0  0
   31.6696   32.8337   16.1091 C   0  0  0  0  0  0  0  0  0  0  0  0
    1.3093   18.9787   18.9769 C   0  0  0  0  0  0  0  0  0  0  0  0
    1.3093   40.0647   18.9769 C   0  0  0  0  0  0  0  0  0  0  0  0
   22.3953   18.9787   18.9769 C   0  0  0  0  0  0  0  0  0  0  0  0
   22.3953   40.0647   18.9769 C   0  0  0  0  0  0  0  0  0  0  0  0
    2.7810   18.9774   18.9786 C   0  0  0  0  0  0  0  0  0  0  0  0
    2.7810   40.0634   18.9786 C   0  0  0  0  0  0  0  0  0  0  0  0
   23.8670   18.9774   18.9786 C   0  0  0  0  0  0  0  0  0  0  0  0
   23.8670   40.0634   18.9786 C   0  0  0  0  0  0  0  0  0  0  0  0
    3.4708   20.1835   19.0177 C   0  0  0  0  0  0  0  0  0  0  0  0
    3.4708   41.2695   19.0177 C   0  0  0  0  0  0  0  0  0  0  0  0
   24.5568   20.1835   19.0177 C   0  0  0  0  0  0  0  0  0  0  0  0
   24.5568   41.2695   19.0177 C   0  0  0  0  0  0  0  0  0  0  0  0
    4.8452   20.1760   18.9946 C   0  0  0  0  0  0  0  0  0  0  0  0
    4.8452   41.2620   18.9946 C   0  0  0  0  0  0  0  0  0  0  0  0
   25.9312   20.1760   18.9946 C   0  0  0  0  0  0  0  0  0  0  0  0
   25.9312   41.2620   18.9946 C   0  0  0  0  0  0  0  0  0  0  0  0
    5.5617   18.9765   18.9786 C   0  0  0  0  0  0  0  0  0  0  0  0
    5.5617   40.0625   18.9786 C   0  0  0  0  0  0  0  0  0  0  0  0
   26.6477   18.9765   18.9786 C   0  0  0  0  0  0  0  0  0  0  0  0
   26.6477   40.0625   18.9786 C   0  0  0  0  0  0  0  0  0  0  0  0
    7.0218   18.9761   18.9781 C   0  0  0  0  0  0  0  0  0  0  0  0
    7.0218   40.0621   18.9781 C   0  0  0  0  0  0  0  0  0  0  0  0
   28.1078   18.9761   18.9781 C   0  0  0  0  0  0  0  0  0  0  0  0
   28.1078   40.0621   18.9781 C   0  0  0  0  0  0  0  0  0  0  0  0
    7.7480   17.7859   18.9772 C   0  0  0  0  0  0  0  0  0  0  0  0
    7.7480   38.8719   18.9772 C   0  0  0  0  0  0  0  0  0  0  0  0
   28.8340   17.7859   18.9772 C   0  0  0  0  0  0  0  0  0  0  0  0
   28.8340   38.8719   18.9772 C   0  0  0  0  0  0  0  0  0  0  0  0
    9.1202   17.7861   18.9763 C   0  0  0  0  0  0  0  0  0  0  0  0
    9.1202   38.8721   18.9763 C   0  0  0  0  0  0  0  0  0  0  0  0
   30.2062   17.7861   18.9763 C   0  0  0  0  0  0  0  0  0  0  0  0
   30.2062   38.8721   18.9763 C   0  0  0  0  0  0  0  0  0  0  0  0
    9.8469   18.9760   18.9770 C   0  0  0  0  0  0  0  0  0  0  0  0
    9.8469   40.0620   18.9770 C   0  0  0  0  0  0  0  0  0  0  0  0
   30.9329   18.9760   18.9770 C   0  0  0  0  0  0  0  0  0  0  0  0
   30.9329   40.0620   18.9770 C   0  0  0  0  0  0  0  0  0  0  0  0
   11.3071   18.9761   18.9768 C   0  0  0  0  0  0  0  0  0  0  0  0
   11.3071   40.0621   18.9768 C   0  0  0  0  0  0  0  0  0  0  0  0
   32.3931   18.9761   18.9768 C   0  0  0  0  0  0  0  0  0  0  0  0
   32.3931   40.0621   18.9768 C   0  0  0  0  0  0  0  0  0  0  0  0
   12.0246   17.7773   18.9913 C   0  0  0  0  0  0  0  0  0  0  0  0
   12.0246   38.8633   18.9913 C   0  0  0  0  0  0  0  0  0  0  0  0
   33.1106   17.7773   18.9913 C   0  0  0  0  0  0  0  0  0  0  0  0
   33.1106   38.8633   18.9913 C   0  0  0  0  0  0  0  0  0  0  0  0
   13.3990   17.7706   19.0144 C   0  0  0  0  0  0  0  0  0  0  0  0
   13.3990   38.8566   19.0144 C   0  0  0  0  0  0  0  0  0  0  0  0
   34.4850   17.7706   19.0144 C   0  0  0  0  0  0  0  0  0  0  0  0
   34.4850   38.8566   19.0144 C   0  0  0  0  0  0  0  0  0  0  0  0
   14.0876   18.9773   18.9769 C   0  0  0  0  0  0  0  0  0  0  0  0
   14.0876   40.0633   18.9769 C   0  0  0  0  0  0  0  0  0  0  0  0
   35.1736   18.9773   18.9769 C   0  0  0  0  0  0  0  0  0  0  0  0
   35.1736   40.0633   18.9769 C   0  0  0  0  0  0  0  0  0  0  0  0
   15.5594   18.9787   18.9767 C   0  0  0  0  0  0  0  0  0  0  0  0
   15.5594   40.0647   18.9767 C   0  0  0  0  0  0  0  0  0  0  0  0
   36.6454   18.9787   18.9767 C   0  0  0  0  0  0  0  0  0  0  0  0
   36.6454   40.0647   18.9767 C   0  0  0  0  0  0  0  0  0  0  0  0
   13.3977   20.1833   18.9398 C   0  0  0  0  0  0  0  0  0  0  0  0
   13.3977   41.2693   18.9398 C   0  0  0  0  0  0  0  0  0  0  0  0
   34.4837   20.1833   18.9398 C   0  0  0  0  0  0  0  0  0  0  0  0
   34.4837   41.2693   18.9398 C   0  0  0  0  0  0  0  0  0  0  0  0
   12.0234   20.1757   18.9626 C   0  0  0  0  0  0  0  0  0  0  0  0
   12.0234   41.2617   18.9626 C   0  0  0  0  0  0  0  0  0  0  0  0
   33.1094   20.1757   18.9626 C   0  0  0  0  0  0  0  0  0  0  0  0
   33.1094   41.2617   18.9626 C   0  0  0  0  0  0  0  0  0  0  0  0
    9.1205   20.1660   18.9779 C   0  0  0  0  0  0  0  0  0  0  0  0
    9.1205   41.2520   18.9779 C   0  0  0  0  0  0  0  0  0  0  0  0
   30.2065   20.1660   18.9779 C   0  0  0  0  0  0  0  0  0  0  0  0
   30.2065   41.2520   18.9779 C   0  0  0  0  0  0  0  0  0  0  0  0
    7.7484   20.1661   18.9783 C   0  0  0  0  0  0  0  0  0  0  0  0
    7.7484   41.2521   18.9783 C   0  0  0  0  0  0  0  0  0  0  0  0
   28.8344   20.1661   18.9783 C   0  0  0  0  0  0  0  0  0  0  0  0
   28.8344   41.2521   18.9783 C   0  0  0  0  0  0  0  0  0  0  0  0
    4.8445   17.7773   18.9626 C   0  0  0  0  0  0  0  0  0  0  0  0
    4.8445   38.8633   18.9626 C   0  0  0  0  0  0  0  0  0  0  0  0
   25.9305   17.7773   18.9626 C   0  0  0  0  0  0  0  0  0  0  0  0
   25.9305   38.8633   18.9626 C   0  0  0  0  0  0  0  0  0  0  0  0
    3.4700   17.7710   18.9399 C   0  0  0  0  0  0  0  0  0  0  0  0
    3.4700   38.8570   18.9399 C   0  0  0  0  0  0  0  0  0  0  0  0
   24.5560   17.7710   18.9399 C   0  0  0  0  0  0  0  0  0  0  0  0
   24.5560   38.8570   18.9399 C   0  0  0  0  0  0  0  0  0  0  0  0
   18.9774    1.3007   18.9759 C   0  0  0  0  0  0  0  0  0  0  0  0
   18.9774   22.3867   18.9759 C   0  0  0  0  0  0  0  0  0  0  0  0
   40.0634    1.3007   18.9759 C   0  0  0  0  0  0  0  0  0  0  0  0
   40.0634   22.3867   18.9759 C   0  0  0  0  0  0  0  0  0  0  0  0
   18.9773    2.7715   18.9772 C   0  0  0  0  0  0  0  0  0  0  0  0
   18.9773   23.8575   18.9772 C   0  0  0  0  0  0  0  0  0  0  0  0
   40.0633    2.7715   18.9772 C   0  0  0  0  0  0  0  0  0  0  0  0
   40.0633   23.8575   18.9772 C   0  0  0  0  0  0  0  0  0  0  0  0
   17.7728    3.4573   18.9374 C   0  0  0  0  0  0  0  0  0  0  0  0
   17.7728   24.5433   18.9374 C   0  0  0  0  0  0  0  0  0  0  0  0
   38.8588    3.4573   18.9374 C   0  0  0  0  0  0  0  0  0  0  0  0
   38.8588   24.5433   18.9374 C   0  0  0  0  0  0  0  0  0  0  0  0
   17.7801    4.8329   18.9624 C   0  0  0  0  0  0  0  0  0  0  0  0
   17.7801   25.9189   18.9624 C   0  0  0  0  0  0  0  0  0  0  0  0
   38.8661    4.8329   18.9624 C   0  0  0  0  0  0  0  0  0  0  0  0
   38.8661   25.9189   18.9624 C   0  0  0  0  0  0  0  0  0  0  0  0
   18.9777    5.5541   18.9783 C   0  0  0  0  0  0  0  0  0  0  0  0
   18.9777   26.6401   18.9783 C   0  0  0  0  0  0  0  0  0  0  0  0
   40.0637    5.5541   18.9783 C   0  0  0  0  0  0  0  0  0  0  0  0
   40.0637   26.6401   18.9783 C   0  0  0  0  0  0  0  0  0  0  0  0
   18.9776    7.0185   18.9781 C   0  0  0  0  0  0  0  0  0  0  0  0
   18.9776   28.1045   18.9781 C   0  0  0  0  0  0  0  0  0  0  0  0
   40.0636    7.0185   18.9781 C   0  0  0  0  0  0  0  0  0  0  0  0
   40.0636   28.1045   18.9781 C   0  0  0  0  0  0  0  0  0  0  0  0
   20.1664    7.7481   18.9785 C   0  0  0  0  0  0  0  0  0  0  0  0
   20.1664   28.8341   18.9785 C   0  0  0  0  0  0  0  0  0  0  0  0
   41.2524    7.7481   18.9785 C   0  0  0  0  0  0  0  0  0  0  0  0
   41.2524   28.8341   18.9785 C   0  0  0  0  0  0  0  0  0  0  0  0
   20.1662    9.1218   18.9782 C   0  0  0  0  0  0  0  0  0  0  0  0
   20.1662   30.2078   18.9782 C   0  0  0  0  0  0  0  0  0  0  0  0
   41.2522    9.1218   18.9782 C   0  0  0  0  0  0  0  0  0  0  0  0
   41.2522   30.2078   18.9782 C   0  0  0  0  0  0  0  0  0  0  0  0
   18.9774    9.8513   18.9769 C   0  0  0  0  0  0  0  0  0  0  0  0
   18.9774   30.9373   18.9769 C   0  0  0  0  0  0  0  0  0  0  0  0
   40.0634    9.8513   18.9769 C   0  0  0  0  0  0  0  0  0  0  0  0
   40.0634   30.9373   18.9769 C   0  0  0  0  0  0  0  0  0  0  0  0
   18.9774   11.3159   18.9768 C   0  0  0  0  0  0  0  0  0  0  0  0
   18.9774   32.4019   18.9768 C   0  0  0  0  0  0  0  0  0  0  0  0
   40.0634   11.3159   18.9768 C   0  0  0  0  0  0  0  0  0  0  0  0
   40.0634   32.4019   18.9768 C   0  0  0  0  0  0  0  0  0  0  0  0
   20.1752   12.0367   18.9627 C   0  0  0  0  0  0  0  0  0  0  0  0
   20.1752   33.1227   18.9627 C   0  0  0  0  0  0  0  0  0  0  0  0
   41.2612   12.0367   18.9627 C   0  0  0  0  0  0  0  0  0  0  0  0
   41.2612   33.1227   18.9627 C   0  0  0  0  0  0  0  0  0  0  0  0
   20.1827   13.4125   18.9382 C   0  0  0  0  0  0  0  0  0  0  0  0
   20.1827   34.4985   18.9382 C   0  0  0  0  0  0  0  0  0  0  0  0
   41.2687   13.4125   18.9382 C   0  0  0  0  0  0  0  0  0  0  0  0
   41.2687   34.4985   18.9382 C   0  0  0  0  0  0  0  0  0  0  0  0
   18.9779   14.0979   18.9768 C   0  0  0  0  0  0  0  0  0  0  0  0
   18.9779   35.1839   18.9768 C   0  0  0  0  0  0  0  0  0  0  0  0
   40.0639   14.0979   18.9768 C   0  0  0  0  0  0  0  0  0  0  0  0
   40.0639   35.1839   18.9768 C   0  0  0  0  0  0  0  0  0  0  0  0
   18.9776   15.5684   18.9755 C   0  0  0  0  0  0  0  0  0  0  0  0
   18.9776   36.6544   18.9755 C   0  0  0  0  0  0  0  0  0  0  0  0
   40.0636   15.5684   18.9755 C   0  0  0  0  0  0  0  0  0  0  0  0
   40.0636   36.6544   18.9755 C   0  0  0  0  0  0  0  0  0  0  0  0
   17.7730   13.4126   19.0161 C   0  0  0  0  0  0  0  0  0  0  0  0
   17.7730   34.4986   19.0161 C   0  0  0  0  0  0  0  0  0  0  0  0
   38.8590   13.4126   19.0161 C   0  0  0  0  0  0  0  0  0  0  0  0
   38.8590   34.4986   19.0161 C   0  0  0  0  0  0  0  0  0  0  0  0
   17.7798   12.0368   18.9913 C   0  0  0  0  0  0  0  0  0  0  0  0
   17.7798   33.1228   18.9913 C   0  0  0  0  0  0  0  0  0  0  0  0
   38.8658   12.0368   18.9913 C   0  0  0  0  0  0  0  0  0  0  0  0
   38.8658   33.1228   18.9913 C   0  0  0  0  0  0  0  0  0  0  0  0
   17.7885    9.1220   18.9760 C   0  0  0  0  0  0  0  0  0  0  0  0
   17.7885   30.2080   18.9760 C   0  0  0  0  0  0  0  0  0  0  0  0
   38.8745    9.1220   18.9760 C   0  0  0  0  0  0  0  0  0  0  0  0
   38.8745   30.2080   18.9760 C   0  0  0  0  0  0  0  0  0  0  0  0
   17.7889    7.7482   18.9769 C   0  0  0  0  0  0  0  0  0  0  0  0
   17.7889   28.8342   18.9769 C   0  0  0  0  0  0  0  0  0  0  0  0
   38.8749    7.7482   18.9769 C   0  0  0  0  0  0  0  0  0  0  0  0
   38.8749   28.8342   18.9769 C   0  0  0  0  0  0  0  0  0  0  0  0
   20.1751    4.8326   18.9942 C   0  0  0  0  0  0  0  0  0  0  0  0
   20.1751   25.9186   18.9942 C   0  0  0  0  0  0  0  0  0  0  0  0
   41.2611    4.8326   18.9942 C   0  0  0  0  0  0  0  0  0  0  0  0
   41.2611   25.9186   18.9942 C   0  0  0  0  0  0  0  0  0  0  0  0
   20.1820    3.4569   19.0185 C   0  0  0  0  0  0  0  0  0  0  0  0
   20.1820   24.5429   19.0185 C   0  0  0  0  0  0  0  0  0  0  0  0
   41.2680    3.4569   19.0185 C   0  0  0  0  0  0  0  0  0  0  0  0
   41.2680   24.5429   19.0185 C   0  0  0  0  0  0  0  0  0  0  0  0
   18.9792   18.9786    1.2809 C   0  0  0  0  0  0  0  0  0  0  0  0
   18.9792   40.0646    1.2809 C   0  0  0  0  0  0  0  0  0  0  0  0
   40.0652   18.9786    1.2809 C   0  0  0  0  0  0  0  0  0  0  0  0
   40.0652   40.0646    1.2809 C   0  0  0  0  0  0  0  0  0  0  0  0
   18.9787   18.9774    2.7626 C   0  0  0  0  0  0  0  0  0  0  0  0
   18.9787   40.0634    2.7626 C   0  0  0  0  0  0  0  0  0  0  0  0
   40.0647   18.9774    2.7626 C   0  0  0  0  0  0  0  0  0  0  0  0
   40.0647   40.0634    2.7626 C   0  0  0  0  0  0  0  0  0  0  0  0
   18.9371   17.7737    3.4570 C   0  0  0  0  0  0  0  0  0  0  0  0
   18.9371   38.8597    3.4570 C   0  0  0  0  0  0  0  0  0  0  0  0
   40.0231   17.7737    3.4570 C   0  0  0  0  0  0  0  0  0  0  0  0
   40.0231   38.8597    3.4570 C   0  0  0  0  0  0  0  0  0  0  0  0
   18.9613   17.7774    4.8341 C   0  0  0  0  0  0  0  0  0  0  0  0
   18.9613   38.8634    4.8341 C   0  0  0  0  0  0  0  0  0  0  0  0
   40.0473   17.7774    4.8341 C   0  0  0  0  0  0  0  0  0  0  0  0
   40.0473   38.8634    4.8341 C   0  0  0  0  0  0  0  0  0  0  0  0
   18.9774   18.9766    5.5534 C   0  0  0  0  0  0  0  0  0  0  0  0
   18.9774   40.0626    5.5534 C   0  0  0  0  0  0  0  0  0  0  0  0
   40.0634   18.9766    5.5534 C   0  0  0  0  0  0  0  0  0  0  0  0
   40.0634   40.0626    5.5534 C   0  0  0  0  0  0  0  0  0  0  0  0
   18.9768   18.9762    7.0164 C   0  0  0  0  0  0  0  0  0  0  0  0
   18.9768   40.0622    7.0164 C   0  0  0  0  0  0  0  0  0  0  0  0
   40.0628   18.9762    7.0164 C   0  0  0  0  0  0  0  0  0  0  0  0
   40.0628   40.0622    7.0164 C   0  0  0  0  0  0  0  0  0  0  0  0
   18.9769   20.1637    7.7474 C   0  0  0  0  0  0  0  0  0  0  0  0
   18.9769   41.2497    7.7474 C   0  0  0  0  0  0  0  0  0  0  0  0
   40.0629   20.1637    7.7474 C   0  0  0  0  0  0  0  0  0  0  0  0
   40.0629   41.2497    7.7474 C   0  0  0  0  0  0  0  0  0  0  0  0
   18.9765   20.1636    9.1206 C   0  0  0  0  0  0  0  0  0  0  0  0
   18.9765   41.2496    9.1206 C   0  0  0  0  0  0  0  0  0  0  0  0
   40.0625   20.1636    9.1206 C   0  0  0  0  0  0  0  0  0  0  0  0
   40.0625   41.2496    9.1206 C   0  0  0  0  0  0  0  0  0  0  0  0
   18.9756   18.9760    9.8515 C   0  0  0  0  0  0  0  0  0  0  0  0
   18.9756   40.0620    9.8515 C   0  0  0  0  0  0  0  0  0  0  0  0
   40.0616   18.9760    9.8515 C   0  0  0  0  0  0  0  0  0  0  0  0
   40.0616   40.0620    9.8515 C   0  0  0  0  0  0  0  0  0  0  0  0
   18.9757   18.9759   11.3145 C   0  0  0  0  0  0  0  0  0  0  0  0
   18.9757   40.0619   11.3145 C   0  0  0  0  0  0  0  0  0  0  0  0
   40.0617   18.9759   11.3145 C   0  0  0  0  0  0  0  0  0  0  0  0
   40.0617   40.0619   11.3145 C   0  0  0  0  0  0  0  0  0  0  0  0
   18.9615   20.1752   12.0337 C   0  0  0  0  0  0  0  0  0  0  0  0
   18.9615   41.2612   12.0337 C   0  0  0  0  0  0  0  0  0  0  0  0
   40.0475   20.1752   12.0337 C   0  0  0  0  0  0  0  0  0  0  0  0
   40.0475   41.2612   12.0337 C   0  0  0  0  0  0  0  0  0  0  0  0
   18.9373   20.1796   13.4108 C   0  0  0  0  0  0  0  0  0  0  0  0
   18.9373   41.2656   13.4108 C   0  0  0  0  0  0  0  0  0  0  0  0
   40.0233   20.1796   13.4108 C   0  0  0  0  0  0  0  0  0  0  0  0
   40.0233   41.2656   13.4108 C   0  0  0  0  0  0  0  0  0  0  0  0
   18.9767   18.9762   14.1057 C   0  0  0  0  0  0  0  0  0  0  0  0
   18.9767   40.0622   14.1057 C   0  0  0  0  0  0  0  0  0  0  0  0
   40.0627   18.9762   14.1057 C   0  0  0  0  0  0  0  0  0  0  0  0
   40.0627   40.0622   14.1057 C   0  0  0  0  0  0  0  0  0  0  0  0
   18.9770   18.9778   15.5877 C   0  0  0  0  0  0  0  0  0  0  0  0
   18.9770   40.0638   15.5877 C   0  0  0  0  0  0  0  0  0  0  0  0
   40.0630   18.9778   15.5877 C   0  0  0  0  0  0  0  0  0  0  0  0
   40.0630   40.0638   15.5877 C   0  0  0  0  0  0  0  0  0  0  0  0
   19.0156   17.7725   13.4114 C   0  0  0  0  0  0  0  0  0  0  0  0
   19.0156   38.8585   13.4114 C   0  0  0  0  0  0  0  0  0  0  0  0
   40.1016   17.7725   13.4114 C   0  0  0  0  0  0  0  0  0  0  0  0
   40.1016   38.8585   13.4114 C   0  0  0  0  0  0  0  0  0  0  0  0
   18.9903   17.7769   12.0344 C   0  0  0  0  0  0  0  0  0  0  0  0
   18.9903   38.8629   12.0344 C   0  0  0  0  0  0  0  0  0  0  0  0
   40.0763   17.7769   12.0344 C   0  0  0  0  0  0  0  0  0  0  0  0
   40.0763   38.8629   12.0344 C   0  0  0  0  0  0  0  0  0  0  0  0
   18.9750   17.7887    9.1203 C   0  0  0  0  0  0  0  0  0  0  0  0
   18.9750   38.8747    9.1203 C   0  0  0  0  0  0  0  0  0  0  0  0
   40.0610   17.7887    9.1203 C   0  0  0  0  0  0  0  0  0  0  0  0
   40.0610   38.8747    9.1203 C   0  0  0  0  0  0  0  0  0  0  0  0
   18.9760   17.7885    7.7471 C   0  0  0  0  0  0  0  0  0  0  0  0
   18.9760   38.8745    7.7471 C   0  0  0  0  0  0  0  0  0  0  0  0
   40.0620   17.7885    7.7471 C   0  0  0  0  0  0  0  0  0  0  0  0
   40.0620   38.8745    7.7471 C   0  0  0  0  0  0  0  0  0  0  0  0
   18.9937   20.1762    4.8348 C   0  0  0  0  0  0  0  0  0  0  0  0
   18.9937   41.2622    4.8348 C   0  0  0  0  0  0  0  0  0  0  0  0
   40.0797   20.1762    4.8348 C   0  0  0  0  0  0  0  0  0  0  0  0
   40.0797   41.2622    4.8348 C   0  0  0  0  0  0  0  0  0  0  0  0
   19.0191   20.1808    3.4577 C   0  0  0  0  0  0  0  0  0  0  0  0
   19.0191   41.2668    3.4577 C   0  0  0  0  0  0  0  0  0  0  0  0
   40.1051   20.1808    3.4577 C   0  0  0  0  0  0  0  0  0  0  0  0
   40.1051   41.2668    3.4577 C   0  0  0  0  0  0  0  0  0  0  0  0
   10.5428   10.5408   10.5442 O   0  0  0  0  0  0  0  0  0  0  0  0
   10.5428   31.6268   10.5442 O   0  0  0  0  0  0  0  0  0  0  0  0
   31.6288   10.5408   10.5442 O   0  0  0  0  0  0  0  0  0  0  0  0
   31.6288   31.6268   10.5442 O   0  0  0  0  0  0  0  0  0  0  0  0
   13.3817    9.6001    9.9475 O   0  0  0  0  0  0  0  0  0  0  0  0
   13.3817   30.6861    9.9475 O   0  0  0  0  0  0  0  0  0  0  0  0
   34.4677    9.6001    9.9475 O   0  0  0  0  0  0  0  0  0  0  0  0
   34.4677   30.6861    9.9475 O   0  0  0  0  0  0  0  0  0  0  0  0
   13.3822   11.4845   11.1424 O   0  0  0  0  0  0  0  0  0  0  0  0
   13.3822   32.5705   11.1424 O   0  0  0  0  0  0  0  0  0  0  0  0
   34.4682   11.4845   11.1424 O   0  0  0  0  0  0  0  0  0  0  0  0
   34.4682   32.5705   11.1424 O   0  0  0  0  0  0  0  0  0  0  0  0
    7.7060   11.4832    9.9487 O   0  0  0  0  0  0  0  0  0  0  0  0
    7.7060   32.5692    9.9487 O   0  0  0  0  0  0  0  0  0  0  0  0
   28.7920   11.4832    9.9487 O   0  0  0  0  0  0  0  0  0  0  0  0
   28.7920   32.5692    9.9487 O   0  0  0  0  0  0  0  0  0  0  0  0
    7.7026    9.5971   11.1410 O   0  0  0  0  0  0  0  0  0  0  0  0
    7.7026   30.6831   11.1410 O   0  0  0  0  0  0  0  0  0  0  0  0
   28.7886    9.5971   11.1410 O   0  0  0  0  0  0  0  0  0  0  0  0
   28.7886   30.6831   11.1410 O   0  0  0  0  0  0  0  0  0  0  0  0
    9.7780   13.3827    9.7298 O   0  0  0  0  0  0  0  0  0  0  0  0
    9.7780   34.4687    9.7298 O   0  0  0  0  0  0  0  0  0  0  0  0
   30.8640   13.3827    9.7298 O   0  0  0  0  0  0  0  0  0  0  0  0
   30.8640   34.4687    9.7298 O   0  0  0  0  0  0  0  0  0  0  0  0
   11.3069   13.3838   11.3617 O   0  0  0  0  0  0  0  0  0  0  0  0
   11.3069   34.4698   11.3617 O   0  0  0  0  0  0  0  0  0  0  0  0
   32.3929   13.3838   11.3617 O   0  0  0  0  0  0  0  0  0  0  0  0
   32.3929   34.4698   11.3617 O   0  0  0  0  0  0  0  0  0  0  0  0
   11.3072    7.7023    9.7292 O   0  0  0  0  0  0  0  0  0  0  0  0
   11.3072   28.7883    9.7292 O   0  0  0  0  0  0  0  0  0  0  0  0
   32.3932    7.7023    9.7292 O   0  0  0  0  0  0  0  0  0  0  0  0
   32.3932   28.7883    9.7292 O   0  0  0  0  0  0  0  0  0  0  0  0
    9.7803    7.7002   11.3636 O   0  0  0  0  0  0  0  0  0  0  0  0
    9.7803   28.7862   11.3636 O   0  0  0  0  0  0  0  0  0  0  0  0
   30.8663    7.7002   11.3636 O   0  0  0  0  0  0  0  0  0  0  0  0
   30.8663   28.7862   11.3636 O   0  0  0  0  0  0  0  0  0  0  0  0
    9.6978    9.8111   13.3576 O   0  0  0  0  0  0  0  0  0  0  0  0
    9.6978   30.8971   13.3576 O   0  0  0  0  0  0  0  0  0  0  0  0
   30.7838    9.8111   13.3576 O   0  0  0  0  0  0  0  0  0  0  0  0
   30.7838   30.8971   13.3576 O   0  0  0  0  0  0  0  0  0  0  0  0
   11.3855   11.2717   13.3557 O   0  0  0  0  0  0  0  0  0  0  0  0
   11.3855   32.3577   13.3557 O   0  0  0  0  0  0  0  0  0  0  0  0
   32.4715   11.2717   13.3557 O   0  0  0  0  0  0  0  0  0  0  0  0
   32.4715   32.3577   13.3557 O   0  0  0  0  0  0  0  0  0  0  0  0
    9.7020   11.2741    7.7320 O   0  0  0  0  0  0  0  0  0  0  0  0
    9.7020   32.3601    7.7320 O   0  0  0  0  0  0  0  0  0  0  0  0
   30.7880   11.2741    7.7320 O   0  0  0  0  0  0  0  0  0  0  0  0
   30.7880   32.3601    7.7320 O   0  0  0  0  0  0  0  0  0  0  0  0
   11.3830    9.8067    7.7296 O   0  0  0  0  0  0  0  0  0  0  0  0
   11.3830   30.8927    7.7296 O   0  0  0  0  0  0  0  0  0  0  0  0
   32.4690    9.8067    7.7296 O   0  0  0  0  0  0  0  0  0  0  0  0
   32.4690   30.8927    7.7296 O   0  0  0  0  0  0  0  0  0  0  0  0
   18.9775   18.9796   18.9762 O   0  0  0  0  0  0  0  0  0  0  0  0
   18.9775   40.0656   18.9762 O   0  0  0  0  0  0  0  0  0  0  0  0
   40.0635   18.9796   18.9762 O   0  0  0  0  0  0  0  0  0  0  0  0
   40.0635   40.0656   18.9762 O   0  0  0  0  0  0  0  0  0  0  0  0
    0.7302   18.0371   18.3779 O   0  0  0  0  0  0  0  0  0  0  0  0
    0.7302   39.1231   18.3779 O   0  0  0  0  0  0  0  0  0  0  0  0
   21.8162   18.0371   18.3779 O   0  0  0  0  0  0  0  0  0  0  0  0
   21.8162   39.1231   18.3779 O   0  0  0  0  0  0  0  0  0  0  0  0
    0.7299   19.9223   19.5717 O   0  0  0  0  0  0  0  0  0  0  0  0
    0.7299   41.0083   19.5717 O   0  0  0  0  0  0  0  0  0  0  0  0
   21.8159   19.9223   19.5717 O   0  0  0  0  0  0  0  0  0  0  0  0
   21.8159   41.0083   19.5717 O   0  0  0  0  0  0  0  0  0  0  0  0
   16.1371   19.9217   18.3789 O   0  0  0  0  0  0  0  0  0  0  0  0
   16.1371   41.0077   18.3789 O   0  0  0  0  0  0  0  0  0  0  0  0
   37.2231   19.9217   18.3789 O   0  0  0  0  0  0  0  0  0  0  0  0
   37.2231   41.0077   18.3789 O   0  0  0  0  0  0  0  0  0  0  0  0
   16.1396   18.0376   19.5742 O   0  0  0  0  0  0  0  0  0  0  0  0
   16.1396   39.1236   19.5742 O   0  0  0  0  0  0  0  0  0  0  0  0
   37.2256   18.0376   19.5742 O   0  0  0  0  0  0  0  0  0  0  0  0
   37.2256   39.1236   19.5742 O   0  0  0  0  0  0  0  0  0  0  0  0
   18.2146    0.7337   18.1576 O   0  0  0  0  0  0  0  0  0  0  0  0
   18.2146   21.8197   18.1576 O   0  0  0  0  0  0  0  0  0  0  0  0
   39.3006    0.7337   18.1576 O   0  0  0  0  0  0  0  0  0  0  0  0
   39.3006   21.8197   18.1576 O   0  0  0  0  0  0  0  0  0  0  0  0
   19.7416    0.7327   19.7920 O   0  0  0  0  0  0  0  0  0  0  0  0
   19.7416   21.8187   19.7920 O   0  0  0  0  0  0  0  0  0  0  0  0
   40.8276    0.7327   19.7920 O   0  0  0  0  0  0  0  0  0  0  0  0
   40.8276   21.8187   19.7920 O   0  0  0  0  0  0  0  0  0  0  0  0
   19.7425   16.1360   18.1592 O   0  0  0  0  0  0  0  0  0  0  0  0
   19.7425   37.2220   18.1592 O   0  0  0  0  0  0  0  0  0  0  0  0
   40.8285   16.1360   18.1592 O   0  0  0  0  0  0  0  0  0  0  0  0
   40.8285   37.2220   18.1592 O   0  0  0  0  0  0  0  0  0  0  0  0
   18.2122   16.1378   19.7898 O   0  0  0  0  0  0  0  0  0  0  0  0
   18.2122   37.2238   19.7898 O   0  0  0  0  0  0  0  0  0  0  0  0
   39.2982   16.1378   19.7898 O   0  0  0  0  0  0  0  0  0  0  0  0
   39.2982   37.2238   19.7898 O   0  0  0  0  0  0  0  0  0  0  0  0
   18.1391   18.2457    0.7023 O   0  0  0  0  0  0  0  0  0  0  0  0
   18.1391   39.3317    0.7023 O   0  0  0  0  0  0  0  0  0  0  0  0
   39.2251   18.2457    0.7023 O   0  0  0  0  0  0  0  0  0  0  0  0
   39.2251   39.3317    0.7023 O   0  0  0  0  0  0  0  0  0  0  0  0
   19.8195   19.7138    0.7047 O   0  0  0  0  0  0  0  0  0  0  0  0
   19.8195   40.7998    0.7047 O   0  0  0  0  0  0  0  0  0  0  0  0
   40.9055   19.7138    0.7047 O   0  0  0  0  0  0  0  0  0  0  0  0
   40.9055   40.7998    0.7047 O   0  0  0  0  0  0  0  0  0  0  0  0
   18.1345   19.7108   16.1626 O   0  0  0  0  0  0  0  0  0  0  0  0
   18.1345   40.7968   16.1626 O   0  0  0  0  0  0  0  0  0  0  0  0
   39.2205   19.7108   16.1626 O   0  0  0  0  0  0  0  0  0  0  0  0
   39.2205   40.7968   16.1626 O   0  0  0  0  0  0  0  0  0  0  0  0
   19.8207   18.2485   16.1647 O   0  0  0  0  0  0  0  0  0  0  0  0
   19.8207   39.3345   16.1647 O   0  0  0  0  0  0  0  0  0  0  0  0
   40.9067   18.2485   16.1647 O   0  0  0  0  0  0  0  0  0  0  0  0
   40.9067   39.3345   16.1647 O   0  0  0  0  0  0  0  0  0  0  0  0
  1765  1  0  0  0  0
  1769  1  0  0  0  0
  1793  1  0  0  0  0
  1813  1  0  0  0  0
  2766  1  0  0  0  0
  2770  1  0  0  0  0
  2794  1  0  0  0  0
  2814  1  0  0  0  0
  3767  1  0  0  0  0
  3771  1  0  0  0  0
  3795  1  0  0  0  0
  3815  1  0  0  0  0
  4768  1  0  0  0  0
  4772  1  0  0  0  0
  4796  1  0  0  0  0
  4816  1  0  0  0  0
  5765  1  0  0  0  0
  5777  1  0  0  0  0
  5785  1  0  0  0  0
  5809  1  0  0  0  0
  6766  1  0  0  0  0
  6778  1  0  0  0  0
  6786  1  0  0  0  0
  6810  1  0  0  0  0
  7767  1  0  0  0  0
  7779  1  0  0  0  0
  7787  1  0  0  0  0
  7811  1  0  0  0  0
  8768  1  0  0  0  0
  8780  1  0  0  0  0
  8788  1  0  0  0  0
  8812  1  0  0  0  0
  9765  1  0  0  0  0
  9781  1  0  0  0  0
  9797  1  0  0  0  0
  9801  1  0  0  0  0
 10766  1  0  0  0  0
 10782  1  0  0  0  0
 10798  1  0  0  0  0
 10802  1  0  0  0  0
 11767  1  0  0  0  0
 11783  1  0  0  0  0
 11799  1  0  0  0  0
 11803  1  0  0  0  0
 12768  1  0  0  0  0
 12784  1  0  0  0  0
 12800  1  0  0  0  0
 12804  1  0  0  0  0
 13765  1  0  0  0  0
 13773  1  0  0  0  0
 13789  1  0  0  0  0
 13805  1  0  0  0  0
 14766  1  0  0  0  0
 14774  1  0  0  0  0
 14790  1  0  0  0  0
 14806  1  0  0  0  0
 15767  1  0  0  0  0
 15775  1  0  0  0  0
 15791  1  0  0  0  0
 15807  1  0  0  0  0
 16768  1  0  0  0  0
 16776  1  0  0  0  0
 16792  1  0  0  0  0
 16808  1  0  0  0  0
 17817  1  0  0  0  0
 17823  1  0  0  0  0
 17845  1  0  0  0  0
 17865  1  0  0  0  0
 18818  1  0  0  0  0
 18824  1  0  0  0  0
 18846  1  0  0  0  0
 18866  1  0  0  0  0
 19819  1  0  0  0  0
 19847  1  0  0  0  0
 19867  1  0  0  0  0
 20820  1  0  0  0  0
 20848  1  0  0  0  0
 20868  1  0  0  0  0
 21817  1  0  0  0  0
 21829  1  0  0  0  0
 21838  1  0  0  0  0
 21861  1  0  0  0  0
 22818  1  0  0  0  0
 22830  1  0  0  0  0
 22862  1  0  0  0  0
 23819  1  0  0  0  0
 23831  1  0  0  0  0
 23840  1  0  0  0  0
 23863  1  0  0  0  0
 24820  1  0  0  0  0
 24832  1  0  0  0  0
 24864  1  0  0  0  0
 25817  1  0  0  0  0
 25833  1  0  0  0  0
 25849  1  0  0  0  0
 26818  1  0  0  0  0
 26834  1  0  0  0  0
 26850  1  0  0  0  0
 27819  1  0  0  0  0
 27835  1  0  0  0  0
 27851  1  0  0  0  0
 28820  1  0  0  0  0
 28836  1  0  0  0  0
 28852  1  0  0  0  0
 29817  1  0  0  0  0
 29827  1  0  0  0  0
 29842  1  0  0  0  0
 30818  1  0  0  0  0
 30828  1  0  0  0  0
 31819  1  0  0  0  0
 31844  1  0  0  0  0
 32820  1  0  0  0  0
 33293  1  0  0  0  0
 34294  1  0  0  0  0
 35295  1  0  0  0  0
 36296  1  0  0  0  0
 37297  1  0  0  0  0
 38298  1  0  0  0  0
 39299  1  0  0  0  0
 40300  1  0  0  0  0
 41309  1  0  0  0  0
 42310  1  0  0  0  0
 43311  1  0  0  0  0
 44312  1  0  0  0  0
 45313  1  0  0  0  0
 46314  1  0  0  0  0
 47315  1  0  0  0  0
 48316  1  0  0  0  0
 49325  1  0  0  0  0
 50326  1  0  0  0  0
 51327  1  0  0  0  0
 52328  1  0  0  0  0
 53329  1  0  0  0  0
 54330  1  0  0  0  0
 55331  1  0  0  0  0
 56332  1  0  0  0  0
 57341  1  0  0  0  0
 58342  1  0  0  0  0
 59343  1  0  0  0  0
 60344  1  0  0  0  0
 61345  1  0  0  0  0
 62346  1  0  0  0  0
 63347  1  0  0  0  0
 64348  1  0  0  0  0
 65349  1  0  0  0  0
 66350  1  0  0  0  0
 67351  1  0  0  0  0
 68352  1  0  0  0  0
 69353  1  0  0  0  0
 70354  1  0  0  0  0
 71355  1  0  0  0  0
 72356  1  0  0  0  0
 73357  1  0  0  0  0
 74358  1  0  0  0  0
 75359  1  0  0  0  0
 76360  1  0  0  0  0
 77361  1  0  0  0  0
 78362  1  0  0  0  0
 79363  1  0  0  0  0
 80364  1  0  0  0  0
 81373  1  0  0  0  0
 82374  1  0  0  0  0
 83375  1  0  0  0  0
 84376  1  0  0  0  0
 85377  1  0  0  0  0
 86378  1  0  0  0  0
 87379  1  0  0  0  0
 88380  1  0  0  0  0
 89389  1  0  0  0  0
 90390  1  0  0  0  0
 91391  1  0  0  0  0
 92392  1  0  0  0  0
 93393  1  0  0  0  0
 94394  1  0  0  0  0
 95395  1  0  0  0  0
 96396  1  0  0  0  0
 97405  1  0  0  0  0
 98406  1  0  0  0  0
 99407  1  0  0  0  0
100408  1  0  0  0  0
101409  1  0  0  0  0
102410  1  0  0  0  0
103411  1  0  0  0  0
104412  1  0  0  0  0
105421  1  0  0  0  0
106422  1  0  0  0  0
107423  1  0  0  0  0
108424  1  0  0  0  0
109425  1  0  0  0  0
110426  1  0  0  0  0
111427  1  0  0  0  0
112428  1  0  0  0  0
113429  1  0  0  0  0
114430  1  0  0  0  0
115431  1  0  0  0  0
116432  1  0  0  0  0
117433  1  0  0  0  0
118434  1  0  0  0  0
119435  1  0  0  0  0
120436  1  0  0  0  0
121437  1  0  0  0  0
122438  1  0  0  0  0
123439  1  0  0  0  0
124440  1  0  0  0  0
125441  1  0  0  0  0
126442  1  0  0  0  0
127443  1  0  0  0  0
128444  1  0  0  0  0
129453  1  0  0  0  0
130454  1  0  0  0  0
131455  1  0  0  0  0
132456  1  0  0  0  0
133457  1  0  0  0  0
134458  1  0  0  0  0
135459  1  0  0  0  0
136460  1  0  0  0  0
137469  1  0  0  0  0
138470  1  0  0  0  0
139471  1  0  0  0  0
140472  1  0  0  0  0
141473  1  0  0  0  0
142474  1  0  0  0  0
143475  1  0  0  0  0
144476  1  0  0  0  0
145485  1  0  0  0  0
146486  1  0  0  0  0
147487  1  0  0  0  0
148488  1  0  0  0  0
149489  1  0  0  0  0
150490  1  0  0  0  0
151491  1  0  0  0  0
152492  1  0  0  0  0
153501  1  0  0  0  0
154502  1  0  0  0  0
155503  1  0  0  0  0
156504  1  0  0  0  0
157505  1  0  0  0  0
158506  1  0  0  0  0
159507  1  0  0  0  0
160508  1  0  0  0  0
161509  1  0  0  0  0
162510  1  0  0  0  0
163511  1  0  0  0  0
164512  1  0  0  0  0
165513  1  0  0  0  0
166514  1  0  0  0  0
167515  1  0  0  0  0
168516  1  0  0  0  0
169517  1  0  0  0  0
170518  1  0  0  0  0
171519  1  0  0  0  0
172520  1  0  0  0  0
173521  1  0  0  0  0
174522  1  0  0  0  0
175523  1  0  0  0  0
176524  1  0  0  0  0
177533  1  0  0  0  0
178535  1  0  0  0  0
179537  1  0  0  0  0
180539  1  0  0  0  0
181549  1  0  0  0  0
182550  1  0  0  0  0
183551  1  0  0  0  0
184552  1  0  0  0  0
185553  1  0  0  0  0
186554  1  0  0  0  0
187555  1  0  0  0  0
188556  1  0  0  0  0
189565  1  0  0  0  0
190566  1  0  0  0  0
191567  1  0  0  0  0
192568  1  0  0  0  0
193569  1  0  0  0  0
194570  1  0  0  0  0
195571  1  0  0  0  0
196572  1  0  0  0  0
197581  1  0  0  0  0
198583  1  0  0  0  0
199585  1  0  0  0  0
200587  1  0  0  0  0
201589  1  0  0  0  0
202591  1  0  0  0  0
203593  1  0  0  0  0
204595  1  0  0  0  0
205597  1  0  0  0  0
206598  1  0  0  0  0
207599  1  0  0  0  0
208600  1  0  0  0  0
209601  1  0  0  0  0
210602  1  0  0  0  0
211603  1  0  0  0  0
212604  1  0  0  0  0
213613  1  0  0  0  0
214614  1  0  0  0  0
215615  1  0  0  0  0
216616  1  0  0  0  0
217617  1  0  0  0  0
218618  1  0  0  0  0
219619  1  0  0  0  0
220620  1  0  0  0  0
221629  1  0  0  0  0
222630  1  0  0  0  0
223633  1  0  0  0  0
224634  1  0  0  0  0
225645  1  0  0  0  0
226646  1  0  0  0  0
227649  1  0  0  0  0
228650  1  0  0  0  0
229661  1  0  0  0  0
230662  1  0  0  0  0
231663  1  0  0  0  0
232664  1  0  0  0  0
233665  1  0  0  0  0
234666  1  0  0  0  0
235667  1  0  0  0  0
236668  1  0  0  0  0
237669  1  0  0  0  0
238670  1  0  0  0  0
239671  1  0  0  0  0
240672  1  0  0  0  0
241673  1  0  0  0  0
242674  1  0  0  0  0
243675  1  0  0  0  0
244676  1  0  0  0  0
245677  1  0  0  0  0
246678  1  0  0  0  0
247681  1  0  0  0  0
248682  1  0  0  0  0
249693  1  0  0  0  0
250694  1  0  0  0  0
251695  1  0  0  0  0
252696  1  0  0  0  0
253697  1  0  0  0  0
254698  1  0  0  0  0
255699  1  0  0  0  0
256700  1  0  0  0  0
257709  1  0  0  0  0
258711  1  0  0  0  0
259713  1  0  0  0  0
260715  1  0  0  0  0
261725  1  0  0  0  0
262727  1  0  0  0  0
263729  1  0  0  0  0
264731  1  0  0  0  0
265741  1  0  0  0  0
266742  1  0  0  0  0
267743  1  0  0  0  0
268744  1  0  0  0  0
269745  1  0  0  0  0
270746  1  0  0  0  0
271747  1  0  0  0  0
272748  1  0  0  0  0
273749  1  0  0  0  0
274750  1  0  0  0  0
275751  1  0  0  0  0
276752  1  0  0  0  0
277753  1  0  0  0  0
278754  1  0  0  0  0
279755  1  0  0  0  0
280756  1  0  0  0  0
281757  1  0  0  0  0
282759  1  0  0  0  0
283761  1  0  0  0  0
284763  1  0  0  0  0
285289  1  0  0  0  0
285769  1  0  0  0  0
285773  1  0  0  0  0
286290  1  0  0  0  0
286770  1  0  0  0  0
286774  1  0  0  0  0
287291  1  0  0  0  0
287771  1  0  0  0  0
287775  1  0  0  0  0
288292  1  0  0  0  0
288772  1  0  0  0  0
288776  1  0  0  0  0
289293  1  0  0  0  0
289361  1  0  0  0  0
290294  1  0  0  0  0
290362  1  0  0  0  0
291295  1  0  0  0  0
291363  1  0  0  0  0
292296  1  0  0  0  0
292364  1  0  0  0  0
293297  1  0  0  0  0
294298  1  0  0  0  0
295299  1  0  0  0  0
296300  1  0  0  0  0
297301  1  0  0  0  0
298302  1  0  0  0  0
299303  1  0  0  0  0
300304  1  0  0  0  0
301305  1  0  0  0  0
301357  1  0  0  0  0
302306  1  0  0  0  0
302358  1  0  0  0  0
303307  1  0  0  0  0
303359  1  0  0  0  0
304308  1  0  0  0  0
304360  1  0  0  0  0
305309  1  0  0  0  0
305353  1  0  0  0  0
306310  1  0  0  0  0
306354  1  0  0  0  0
307311  1  0  0  0  0
307355  1  0  0  0  0
308312  1  0  0  0  0
308356  1  0  0  0  0
309315  1  0  0  0  0
310316  1  0  0  0  0
313317  1  0  0  0  0
314318  1  0  0  0  0
315319  1  0  0  0  0
316320  1  0  0  0  0
317321  1  0  0  0  0
317349  1  0  0  0  0
318322  1  0  0  0  0
318350  1  0  0  0  0
319323  1  0  0  0  0
319351  1  0  0  0  0
320324  1  0  0  0  0
320352  1  0  0  0  0
321325  1  0  0  0  0
321345  1  0  0  0  0
322326  1  0  0  0  0
322346  1  0  0  0  0
323327  1  0  0  0  0
323347  1  0  0  0  0
324328  1  0  0  0  0
324348  1  0  0  0  0
325329  1  0  0  0  0
326330  1  0  0  0  0
327331  1  0  0  0  0
328332  1  0  0  0  0
329333  1  0  0  0  0
330334  1  0  0  0  0
331335  1  0  0  0  0
332336  1  0  0  0  0
333337  1  0  0  0  0
333341  1  0  0  0  0
334338  1  0  0  0  0
334342  1  0  0  0  0
335339  1  0  0  0  0
335343  1  0  0  0  0
336340  1  0  0  0  0
336344  1  0  0  0  0
337777  1  0  0  0  0
337781  1  0  0  0  0
338778  1  0  0  0  0
338782  1  0  0  0  0
339779  1  0  0  0  0
339783  1  0  0  0  0
340780  1  0  0  0  0
340784  1  0  0  0  0
341345  1  0  0  0  0
342346  1  0  0  0  0
343347  1  0  0  0  0
344348  1  0  0  0  0
351353  1  0  0  0  0
352354  1  0  0  0  0
357361  1  0  0  0  0
358362  1  0  0  0  0
359363  1  0  0  0  0
360364  1  0  0  0  0
365369  1  0  0  0  0
365785  1  0  0  0  0
365789  1  0  0  0  0
366370  1  0  0  0  0
366786  1  0  0  0  0
366790  1  0  0  0  0
367371  1  0  0  0  0
367787  1  0  0  0  0
367791  1  0  0  0  0
368372  1  0  0  0  0
368788  1  0  0  0  0
368792  1  0  0  0  0
369373  1  0  0  0  0
369441  1  0  0  0  0
370374  1  0  0  0  0
370442  1  0  0  0  0
371375  1  0  0  0  0
371443  1  0  0  0  0
372376  1  0  0  0  0
372444  1  0  0  0  0
373377  1  0  0  0  0
374378  1  0  0  0  0
375379  1  0  0  0  0
376380  1  0  0  0  0
377381  1  0  0  0  0
378382  1  0  0  0  0
379383  1  0  0  0  0
380384  1  0  0  0  0
381385  1  0  0  0  0
381437  1  0  0  0  0
382386  1  0  0  0  0
382438  1  0  0  0  0
383387  1  0  0  0  0
383439  1  0  0  0  0
384388  1  0  0  0  0
384440  1  0  0  0  0
385389  1  0  0  0  0
385433  1  0  0  0  0
386390  1  0  0  0  0
386434  1  0  0  0  0
387391  1  0  0  0  0
387435  1  0  0  0  0
388392  1  0  0  0  0
388436  1  0  0  0  0
389394  1  0  0  0  0
391396  1  0  0  0  0
393397  1  0  0  0  0
394398  1  0  0  0  0
395399  1  0  0  0  0
396400  1  0  0  0  0
397401  1  0  0  0  0
397429  1  0  0  0  0
398402  1  0  0  0  0
398430  1  0  0  0  0
399403  1  0  0  0  0
399431  1  0  0  0  0
400404  1  0  0  0  0
400432  1  0  0  0  0
401405  1  0  0  0  0
401425  1  0  0  0  0
402406  1  0  0  0  0
402426  1  0  0  0  0
403407  1  0  0  0  0
403427  1  0  0  0  0
404408  1  0  0  0  0
404428  1  0  0  0  0
405409  1  0  0  0  0
406410  1  0  0  0  0
407411  1  0  0  0  0
408412  1  0  0  0  0
409413  1  0  0  0  0
410414  1  0  0  0  0
411415  1  0  0  0  0
412416  1  0  0  0  0
413417  1  0  0  0  0
413421  1  0  0  0  0
414418  1  0  0  0  0
414422  1  0  0  0  0
415419  1  0  0  0  0
415423  1  0  0  0  0
416420  1  0  0  0  0
416424  1  0  0  0  0
417793  1  0  0  0  0
417797  1  0  0  0  0
418794  1  0  0  0  0
418798  1  0  0  0  0
419795  1  0  0  0  0
419799  1  0  0  0  0
420796  1  0  0  0  0
420800  1  0  0  0  0
421425  1  0  0  0  0
422426  1  0  0  0  0
423427  1  0  0  0  0
424428  1  0  0  0  0
430433  1  0  0  0  0
432435  1  0  0  0  0
437441  1  0  0  0  0
438442  1  0  0  0  0
439443  1  0  0  0  0
440444  1  0  0  0  0
445449  1  0  0  0  0
445801  1  0  0  0  0
445805  1  0  0  0  0
446450  1  0  0  0  0
446802  1  0  0  0  0
446806  1  0  0  0  0
447451  1  0  0  0  0
447803  1  0  0  0  0
447807  1  0  0  0  0
448452  1  0  0  0  0
448804  1  0  0  0  0
448808  1  0  0  0  0
449453  1  0  0  0  0
449521  1  0  0  0  0
450454  1  0  0  0  0
450522  1  0  0  0  0
451455  1  0  0  0  0
451523  1  0  0  0  0
452456  1  0  0  0  0
452524  1  0  0  0  0
453457  1  0  0  0  0
454458  1  0  0  0  0
455459  1  0  0  0  0
456460  1  0  0  0  0
457461  1  0  0  0  0
458462  1  0  0  0  0
459463  1  0  0  0  0
460464  1  0  0  0  0
461465  1  0  0  0  0
461517  1  0  0  0  0
462466  1  0  0  0  0
462518  1  0  0  0  0
463467  1  0  0  0  0
463519  1  0  0  0  0
464468  1  0  0  0  0
464520  1  0  0  0  0
465469  1  0  0  0  0
465513  1  0  0  0  0
466470  1  0  0  0  0
466514  1  0  0  0  0
467471  1  0  0  0  0
467515  1  0  0  0  0
468472  1  0  0  0  0
468516  1  0  0  0  0
473477  1  0  0  0  0
474478  1  0  0  0  0
475479  1  0  0  0  0
476480  1  0  0  0  0
477481  1  0  0  0  0
477509  1  0  0  0  0
478482  1  0  0  0  0
478510  1  0  0  0  0
479483  1  0  0  0  0
479511  1  0  0  0  0
480484  1  0  0  0  0
480512  1  0  0  0  0
481485  1  0  0  0  0
481505  1  0  0  0  0
482486  1  0  0  0  0
482506  1  0  0  0  0
483487  1  0  0  0  0
483507  1  0  0  0  0
484488  1  0  0  0  0
484508  1  0  0  0  0
485489  1  0  0  0  0
486490  1  0  0  0  0
487491  1  0  0  0  0
488492  1  0  0  0  0
489493  1  0  0  0  0
490494  1  0  0  0  0
491495  1  0  0  0  0
492496  1  0  0  0  0
493497  1  0  0  0  0
493501  1  0  0  0  0
494498  1  0  0  0  0
494502  1  0  0  0  0
495499  1  0  0  0  0
495503  1  0  0  0  0
496500  1  0  0  0  0
496504  1  0  0  0  0
497809  1  0  0  0  0
497813  1  0  0  0  0
498810  1  0  0  0  0
498814  1  0  0  0  0
499811  1  0  0  0  0
499815  1  0  0  0  0
500812  1  0  0  0  0
500816  1  0  0  0  0
501505  1  0  0  0  0
502506  1  0  0  0  0
503507  1  0  0  0  0
504508  1  0  0  0  0
517521  1  0  0  0  0
518522  1  0  0  0  0
519523  1  0  0  0  0
520524  1  0  0  0  0
525529  1  0  0  0  0
525821  1  0  0  0  0
525825  1  0  0  0  0
526530  1  0  0  0  0
526822  1  0  0  0  0
526826  1  0  0  0  0
527531  1  0  0  0  0
527823  1  0  0  0  0
527827  1  0  0  0  0
528532  1  0  0  0  0
528824  1  0  0  0  0
528828  1  0  0  0  0
529533  1  0  0  0  0
529601  1  0  0  0  0
530534  1  0  0  0  0
530602  1  0  0  0  0
531535  1  0  0  0  0
531603  1  0  0  0  0
532536  1  0  0  0  0
532604  1  0  0  0  0
533537  1  0  0  0  0
534538  1  0  0  0  0
535539  1  0  0  0  0
536540  1  0  0  0  0
537541  1  0  0  0  0
538542  1  0  0  0  0
539543  1  0  0  0  0
540544  1  0  0  0  0
541545  1  0  0  0  0
541597  1  0  0  0  0
542546  1  0  0  0  0
542598  1  0  0  0  0
543547  1  0  0  0  0
543599  1  0  0  0  0
544548  1  0  0  0  0
544600  1  0  0  0  0
545549  1  0  0  0  0
545593  1  0  0  0  0
546550  1  0  0  0  0
546594  1  0  0  0  0
547551  1  0  0  0  0
547595  1  0  0  0  0
548552  1  0  0  0  0
548596  1  0  0  0  0
549553  1  0  0  0  0
550554  1  0  0  0  0
551555  1  0  0  0  0
552556  1  0  0  0  0
553557  1  0  0  0  0
554558  1  0  0  0  0
555559  1  0  0  0  0
556560  1  0  0  0  0
557561  1  0  0  0  0
557589  1  0  0  0  0
558562  1  0  0  0  0
558590  1  0  0  0  0
559563  1  0  0  0  0
559591  1  0  0  0  0
560564  1  0  0  0  0
560592  1  0  0  0  0
561565  1  0  0  0  0
561585  1  0  0  0  0
562566  1  0  0  0  0
562586  1  0  0  0  0
563567  1  0  0  0  0
563587  1  0  0  0  0
564568  1  0  0  0  0
564588  1  0  0  0  0
565569  1  0  0  0  0
566570  1  0  0  0  0
567571  1  0  0  0  0
568572  1  0  0  0  0
569573  1  0  0  0  0
570574  1  0  0  0  0
571575  1  0  0  0  0
572576  1  0  0  0  0
573577  1  0  0  0  0
573581  1  0  0  0  0
574578  1  0  0  0  0
574582  1  0  0  0  0
575579  1  0  0  0  0
575583  1  0  0  0  0
576580  1  0  0  0  0
576584  1  0  0  0  0
577829  1  0  0  0  0
577833  1  0  0  0  0
578830  1  0  0  0  0
578834  1  0  0  0  0
579831  1  0  0  0  0
579835  1  0  0  0  0
580832  1  0  0  0  0
580836  1  0  0  0  0
581585  1  0  0  0  0
582586  1  0  0  0  0
583587  1  0  0  0  0
584588  1  0  0  0  0
589593  1  0  0  0  0
590594  1  0  0  0  0
591595  1  0  0  0  0
592596  1  0  0  0  0
597601  1  0  0  0  0
598602  1  0  0  0  0
599603  1  0  0  0  0
600604  1  0  0  0  0
605609  1  0  0  0  0
605837  1  0  0  0  0
605841  1  0  0  0  0
606610  1  0  0  0  0
606838  1  0  0  0  0
606842  1  0  0  0  0
607611  1  0  0  0  0
607839  1  0  0  0  0
607843  1  0  0  0  0
608612  1  0  0  0  0
608840  1  0  0  0  0
608844  1  0  0  0  0
609613  1  0  0  0  0
609681  1  0  0  0  0
610614  1  0  0  0  0
610682  1  0  0  0  0
611615  1  0  0  0  0
611683  1  0  0  0  0
612616  1  0  0  0  0
612684  1  0  0  0  0
613617  1  0  0  0  0
614618  1  0  0  0  0
615619  1  0  0  0  0
616620  1  0  0  0  0
617621  1  0  0  0  0
618622  1  0  0  0  0
619623  1  0  0  0  0
620624  1  0  0  0  0
621625  1  0  0  0  0
621677  1  0  0  0  0
622626  1  0  0  0  0
622678  1  0  0  0  0
623627  1  0  0  0  0
623679  1  0  0  0  0
624628  1  0  0  0  0
624680  1  0  0  0  0
625629  1  0  0  0  0
625673  1  0  0  0  0
626630  1  0  0  0  0
626674  1  0  0  0  0
627631  1  0  0  0  0
627675  1  0  0  0  0
628632  1  0  0  0  0
628676  1  0  0  0  0
629633  1  0  0  0  0
630634  1  0  0  0  0
631635  1  0  0  0  0
632636  1  0  0  0  0
633637  1  0  0  0  0
634638  1  0  0  0  0
635639  1  0  0  0  0
636640  1  0  0  0  0
637641  1  0  0  0  0
637669  1  0  0  0  0
638642  1  0  0  0  0
638670  1  0  0  0  0
639643  1  0  0  0  0
639671  1  0  0  0  0
640644  1  0  0  0  0
640672  1  0  0  0  0
641645  1  0  0  0  0
641665  1  0  0  0  0
642646  1  0  0  0  0
642666  1  0  0  0  0
643647  1  0  0  0  0
643667  1  0  0  0  0
644648  1  0  0  0  0
644668  1  0  0  0  0
645649  1  0  0  0  0
646650  1  0  0  0  0
647651  1  0  0  0  0
648652  1  0  0  0  0
649653  1  0  0  0  0
650654  1  0  0  0  0
651655  1  0  0  0  0
652656  1  0  0  0  0
653657  1  0  0  0  0
653661  1  0  0  0  0
654658  1  0  0  0  0
654662  1  0  0  0  0
655659  1  0  0  0  0
655663  1  0  0  0  0
656660  1  0  0  0  0
656664  1  0  0  0  0
657845  1  0  0  0  0
657849  1  0  0  0  0
658846  1  0  0  0  0
658850  1  0  0  0  0
659847  1  0  0  0  0
659851  1  0  0  0  0
660848  1  0  0  0  0
660852  1  0  0  0  0
661665  1  0  0  0  0
662666  1  0  0  0  0
663667  1  0  0  0  0
664668  1  0  0  0  0
669673  1  0  0  0  0
670674  1  0  0  0  0
671675  1  0  0  0  0
672676  1  0  0  0  0
677681  1  0  0  0  0
678682  1  0  0  0  0
679683  1  0  0  0  0
680684  1  0  0  0  0
685689  1  0  0  0  0
685853  1  0  0  0  0
685857  1  0  0  0  0
686690  1  0  0  0  0
686854  1  0  0  0  0
686858  1  0  0  0  0
687691  1  0  0  0  0
687855  1  0  0  0  0
687859  1  0  0  0  0
688692  1  0  0  0  0
688856  1  0  0  0  0
688860  1  0  0  0  0
689693  1  0  0  0  0
689761  1  0  0  0  0
690694  1  0  0  0  0
690762  1  0  0  0  0
691695  1  0  0  0  0
691763  1  0  0  0  0
692696  1  0  0  0  0
692764  1  0  0  0  0
693697  1  0  0  0  0
694698  1  0  0  0  0
695699  1  0  0  0  0
696700  1  0  0  0  0
697701  1  0  0  0  0
698702  1  0  0  0  0
699703  1  0  0  0  0
700704  1  0  0  0  0
701705  1  0  0  0  0
701757  1  0  0  0  0
702706  1  0  0  0  0
702758  1  0  0  0  0
703707  1  0  0  0  0
703759  1  0  0  0  0
704708  1  0  0  0  0
704760  1  0  0  0  0
705709  1  0  0  0  0
705753  1  0  0  0  0
706710  1  0  0  0  0
706754  1  0  0  0  0
707711  1  0  0  0  0
707755  1  0  0  0  0
708712  1  0  0  0  0
708756  1  0  0  0  0
709713  1  0  0  0  0
710714  1  0  0  0  0
711715  1  0  0  0  0
712716  1  0  0  0  0
713717  1  0  0  0  0
714718  1  0  0  0  0
715719  1  0  0  0  0
716720  1  0  0  0  0
717721  1  0  0  0  0
717749  1  0  0  0  0
718722  1  0  0  0  0
718750  1  0  0  0  0
719723  1  0  0  0  0
719751  1  0  0  0  0
720724  1  0  0  0  0
720752  1  0  0  0  0
721725  1  0  0  0  0
721745  1  0  0  0  0
722726  1  0  0  0  0
722746  1  0  0  0  0
723727  1  0  0  0  0
723747  1  0  0  0  0
724728  1  0  0  0  0
724748  1  0  0  0  0
725729  1  0  0  0  0
726730  1  0  0  0  0
727731  1  0  0  0  0
728732  1  0  0  0  0
729733  1  0  0  0  0
730734  1  0  0  0  0
731735  1  0  0  0  0
732736  1  0  0  0  0
733737  1  0  0  0  0
733741  1  0  0  0  0
734738  1  0  0  0  0
734742  1  0  0  0  0
735739  1  0  0  0  0
735743  1  0  0  0  0
736740  1  0  0  0  0
736744  1  0  0  0  0
737861  1  0  0  0  0
737865  1  0  0  0  0
738862  1  0  0  0  0
738866  1  0  0  0  0
739863  1  0  0  0  0
739867  1  0  0  0  0
740864  1  0  0  0  0
740868  1  0  0  0  0
741745  1  0  0  0  0
742746  1  0  0  0  0
743747  1  0  0  0  0
744748  1  0  0  0  0
749753  1  0  0  0  0
750754  1  0  0  0  0
751755  1  0  0  0  0
752756  1  0  0  0  0
757761  1  0  0  0  0
758762  1  0  0  0  0
759763  1  0  0  0  0
760764  1  0  0  0  0
M  END
$$$$
