tpdc_zn4o_pcu_ip2_off380
AtomForge visual export

723816  0  0  0  0            999 V2000
   11.6027    9.4889    9.5289 Zn  0  0  0  0  0  0  0  0  0  0  0  0
    9.4853   11.5981    9.5310 Zn  0  0  0  0  0  0  0  0  0  0  0  0
    9.4823    9.4872   11.5558 Zn  0  0  0  0  0  0  0  0  0  0  0  0
   11.6023   11.5984   11.5539 Zn  0  0  0  0  0  0  0  0  0  0  0  0
   -1.4726   -3.5870   -3.5416 Zn  0  0  0  0  0  0  0  0  0  0  0  0
   -1.4726   -3.5870   17.5444 Zn  0  0  0  0  0  0  0  0  0  0  0  0
   -1.4726   17.4990   -3.5416 Zn  0  0  0  0  0  0  0  0  0  0  0  0
   -1.4726   17.4990   17.5444 Zn  0  0  0  0  0  0  0  0  0  0  0  0
   19.6134   -3.5870   -3.5416 Zn  0  0  0  0  0  0  0  0  0  0  0  0
   19.6134   -3.5870   17.5444 Zn  0  0  0  0  0  0  0  0  0  0  0  0
   19.6134   17.4990   -3.5416 Zn  0  0  0  0  0  0  0  0  0  0  0  0
   19.6134   17.4990   17.5444 Zn  0  0  0  0  0  0  0  0  0  0  0  0
   -3.5916   -1.4760   -3.5436 Zn  0  0  0  0  0  0  0  0  0  0  0  0
   -3.5916   -1.4760   17.5424 Zn  0  0  0  0  0  0  0  0  0  0  0  0
   -3.5916   19.6100   -3.5436 Zn  0  0  0  0  0  0  0  0  0  0  0  0
   -3.5916   19.6100   17.5424 Zn  0  0  0  0  0  0  0  0  0  0  0  0
   17.4944   -1.4760   -3.5436 Zn  0  0  0  0  0  0  0  0  0  0  0  0
   17.4944   -1.4760   17.5424 Zn  0  0  0  0  0  0  0  0  0  0  0  0
   17.4944   19.6100   -3.5436 Zn  0  0  0  0  0  0  0  0  0  0  0  0
   17.4944   19.6100   17.5424 Zn  0  0  0  0  0  0  0  0  0  0  0  0
   -3.5885   -3.5855   -1.5192 Zn  0  0  0  0  0  0  0  0  0  0  0  0
   -3.5885   -3.5855   19.5668 Zn  0  0  0  0  0  0  0  0  0  0  0  0
   -3.5885   17.5005   -1.5192 Zn  0  0  0  0  0  0  0  0  0  0  0  0
   -3.5885   17.5005   19.5668 Zn  0  0  0  0  0  0  0  0  0  0  0  0
   17.4975   -3.5855   -1.5192 Zn  0  0  0  0  0  0  0  0  0  0  0  0
   17.4975   -3.5855   19.5668 Zn  0  0  0  0  0  0  0  0  0  0  0  0
   17.4975   17.5005   -1.5192 Zn  0  0  0  0  0  0  0  0  0  0  0  0
   17.4975   17.5005   19.5668 Zn  0  0  0  0  0  0  0  0  0  0  0  0
   -1.4712   -1.4755   -1.5165 Zn  0  0  0  0  0  0  0  0  0  0  0  0
   -1.4712   -1.4755   19.5695 Zn  0  0  0  0  0  0  0  0  0  0  0  0
   -1.4712   19.6105   -1.5165 Zn  0  0  0  0  0  0  0  0  0  0  0  0
   -1.4712   19.6105   19.5695 Zn  0  0  0  0  0  0  0  0  0  0  0  0
   19.6148   -1.4755   -1.5165 Zn  0  0  0  0  0  0  0  0  0  0  0  0
   19.6148   -1.4755   19.5695 Zn  0  0  0  0  0  0  0  0  0  0  0  0
   19.6148   19.6105   -1.5165 Zn  0  0  0  0  0  0  0  0  0  0  0  0
   19.6148   19.6105   19.5695 Zn  0  0  0  0  0  0  0  0  0  0  0  0
   15.5696   12.6785   10.6142 H   0  0  0  0  0  0  0  0  0  0  0  0
   -3.0673   12.6858   10.5635 H   0  0  0  0  0  0  0  0  0  0  0  0
   18.0187   12.6858   10.5635 H   0  0  0  0  0  0  0  0  0  0  0  0
   -1.1880    8.4032   10.5423 H   0  0  0  0  0  0  0  0  0  0  0  0
   19.8980    8.4032   10.5423 H   0  0  0  0  0  0  0  0  0  0  0  0
    1.1873    8.4027   10.5391 H   0  0  0  0  0  0  0  0  0  0  0  0
   22.2733    8.4027   10.5391 H   0  0  0  0  0  0  0  0  0  0  0  0
    3.0674    8.4020   10.5537 H   0  0  0  0  0  0  0  0  0  0  0  0
   24.1534    8.4020   10.5537 H   0  0  0  0  0  0  0  0  0  0  0  0
    5.5159    8.4090   10.6108 H   0  0  0  0  0  0  0  0  0  0  0  0
    5.5183   12.6744   10.4739 H   0  0  0  0  0  0  0  0  0  0  0  0
    3.0697   12.6849   10.5309 H   0  0  0  0  0  0  0  0  0  0  0  0
   24.1557   12.6849   10.5309 H   0  0  0  0  0  0  0  0  0  0  0  0
    1.1886   12.6865   10.5470 H   0  0  0  0  0  0  0  0  0  0  0  0
   22.2746   12.6865   10.5470 H   0  0  0  0  0  0  0  0  0  0  0  0
   -1.1862   12.6868   10.5491 H   0  0  0  0  0  0  0  0  0  0  0  0
   19.8998   12.6868   10.5491 H   0  0  0  0  0  0  0  0  0  0  0  0
   -3.0689    8.4036   10.5291 H   0  0  0  0  0  0  0  0  0  0  0  0
   18.0171    8.4036   10.5291 H   0  0  0  0  0  0  0  0  0  0  0  0
   15.5695    8.4128   10.4697 H   0  0  0  0  0  0  0  0  0  0  0  0
    8.4192   15.5445   10.4698 H   0  0  0  0  0  0  0  0  0  0  0  0
    8.4034   -3.0831   10.5272 H   0  0  0  0  0  0  0  0  0  0  0  0
    8.4034   18.0029   10.5272 H   0  0  0  0  0  0  0  0  0  0  0  0
   12.6850   -1.1879   10.5482 H   0  0  0  0  0  0  0  0  0  0  0  0
   12.6850   19.8981   10.5482 H   0  0  0  0  0  0  0  0  0  0  0  0
   12.6843    1.1873   10.5474 H   0  0  0  0  0  0  0  0  0  0  0  0
   12.6843   22.2733   10.5474 H   0  0  0  0  0  0  0  0  0  0  0  0
   12.6824    3.0807   10.5319 H   0  0  0  0  0  0  0  0  0  0  0  0
   12.6824   24.1667   10.5319 H   0  0  0  0  0  0  0  0  0  0  0  0
   12.6665    5.5413   10.4742 H   0  0  0  0  0  0  0  0  0  0  0  0
    8.4178    5.5412   10.6107 H   0  0  0  0  0  0  0  0  0  0  0  0
    8.4026    3.0809   10.5535 H   0  0  0  0  0  0  0  0  0  0  0  0
    8.4026   24.1669   10.5535 H   0  0  0  0  0  0  0  0  0  0  0  0
    8.4022    1.1875   10.5391 H   0  0  0  0  0  0  0  0  0  0  0  0
    8.4022   22.2735   10.5391 H   0  0  0  0  0  0  0  0  0  0  0  0
    8.4027   -1.1890   10.5419 H   0  0  0  0  0  0  0  0  0  0  0  0
    8.4027   19.8970   10.5419 H   0  0  0  0  0  0  0  0  0  0  0  0
   12.6848   -3.0823   10.5619 H   0  0  0  0  0  0  0  0  0  0  0  0
   12.6848   18.0037   10.5619 H   0  0  0  0  0  0  0  0  0  0  0  0
   12.6696   15.5463   10.6162 H   0  0  0  0  0  0  0  0  0  0  0  0
   10.4695    8.4088   15.5663 H   0  0  0  0  0  0  0  0  0  0  0  0
   10.5306    8.3972   -3.0852 H   0  0  0  0  0  0  0  0  0  0  0  0
   10.5306    8.3972   18.0008 H   0  0  0  0  0  0  0  0  0  0  0  0
   10.5502   12.6845   -1.1855 H   0  0  0  0  0  0  0  0  0  0  0  0
   10.5502   12.6845   19.9005 H   0  0  0  0  0  0  0  0  0  0  0  0
   10.5479   12.6843    1.1879 H   0  0  0  0  0  0  0  0  0  0  0  0
   10.5479   12.6843   22.2739 H   0  0  0  0  0  0  0  0  0  0  0  0
   10.5328   12.6916    3.0864 H   0  0  0  0  0  0  0  0  0  0  0  0
   10.5328   12.6916   24.1724 H   0  0  0  0  0  0  0  0  0  0  0  0
   10.4712   12.6796    5.5203 H   0  0  0  0  0  0  0  0  0  0  0  0
   10.6137    8.4063    5.5196 H   0  0  0  0  0  0  0  0  0  0  0  0
   10.5553    8.3957    3.0855 H   0  0  0  0  0  0  0  0  0  0  0  0
   10.5553    8.3957   24.1715 H   0  0  0  0  0  0  0  0  0  0  0  0
   10.5410    8.4047    1.1873 H   0  0  0  0  0  0  0  0  0  0  0  0
   10.5410    8.4047   22.2733 H   0  0  0  0  0  0  0  0  0  0  0  0
   10.5432    8.4050   -1.1869 H   0  0  0  0  0  0  0  0  0  0  0  0
   10.5432    8.4050   19.8991 H   0  0  0  0  0  0  0  0  0  0  0  0
   10.5638   12.6916   -3.0839 H   0  0  0  0  0  0  0  0  0  0  0  0
   10.5638   12.6916   18.0021 H   0  0  0  0  0  0  0  0  0  0  0  0
   10.6169   12.6817   15.5663 H   0  0  0  0  0  0  0  0  0  0  0  0
    2.4959   -0.3978   -2.4574 H   0  0  0  0  0  0  0  0  0  0  0  0
    2.4959   -0.3978   18.6286 H   0  0  0  0  0  0  0  0  0  0  0  0
    2.4959   20.6882   -2.4574 H   0  0  0  0  0  0  0  0  0  0  0  0
    2.4959   20.6882   18.6286 H   0  0  0  0  0  0  0  0  0  0  0  0
   23.5819   -0.3978   -2.4574 H   0  0  0  0  0  0  0  0  0  0  0  0
   23.5819   -0.3978   18.6286 H   0  0  0  0  0  0  0  0  0  0  0  0
   23.5819   20.6882   -2.4574 H   0  0  0  0  0  0  0  0  0  0  0  0
   23.5819   20.6882   18.6286 H   0  0  0  0  0  0  0  0  0  0  0  0
    4.9445   -0.3897   -2.5142 H   0  0  0  0  0  0  0  0  0  0  0  0
    4.9445   -0.3897   18.5718 H   0  0  0  0  0  0  0  0  0  0  0  0
    4.9445   20.6963   -2.5142 H   0  0  0  0  0  0  0  0  0  0  0  0
    4.9445   20.6963   18.5718 H   0  0  0  0  0  0  0  0  0  0  0  0
    6.8244   16.4123   -2.5312 H   0  0  0  0  0  0  0  0  0  0  0  0
    6.8244   16.4123   18.5548 H   0  0  0  0  0  0  0  0  0  0  0  0
    9.1998   16.4123   -2.5362 H   0  0  0  0  0  0  0  0  0  0  0  0
    9.1998   16.4123   18.5498 H   0  0  0  0  0  0  0  0  0  0  0  0
   11.0816   16.4130   -2.5229 H   0  0  0  0  0  0  0  0  0  0  0  0
   11.0816   16.4130   18.5631 H   0  0  0  0  0  0  0  0  0  0  0  0
   13.5302   16.4215   -2.4654 H   0  0  0  0  0  0  0  0  0  0  0  0
   13.5302   16.4215   18.6206 H   0  0  0  0  0  0  0  0  0  0  0  0
   13.5282   -0.3984   -2.5980 H   0  0  0  0  0  0  0  0  0  0  0  0
   13.5282   -0.3984   18.4880 H   0  0  0  0  0  0  0  0  0  0  0  0
   13.5282   20.6876   -2.5980 H   0  0  0  0  0  0  0  0  0  0  0  0
   13.5282   20.6876   18.4880 H   0  0  0  0  0  0  0  0  0  0  0  0
   11.0806   -0.3905   -2.5424 H   0  0  0  0  0  0  0  0  0  0  0  0
   11.0806   -0.3905   18.5436 H   0  0  0  0  0  0  0  0  0  0  0  0
   11.0806   20.6955   -2.5424 H   0  0  0  0  0  0  0  0  0  0  0  0
   11.0806   20.6955   18.5436 H   0  0  0  0  0  0  0  0  0  0  0  0
    9.2004   -0.3904   -2.5290 H   0  0  0  0  0  0  0  0  0  0  0  0
    9.2004   -0.3904   18.5570 H   0  0  0  0  0  0  0  0  0  0  0  0
    9.2004   20.6956   -2.5290 H   0  0  0  0  0  0  0  0  0  0  0  0
    9.2004   20.6956   18.5570 H   0  0  0  0  0  0  0  0  0  0  0  0
    6.8252   -0.3900   -2.5283 H   0  0  0  0  0  0  0  0  0  0  0  0
    6.8252   -0.3900   18.5577 H   0  0  0  0  0  0  0  0  0  0  0  0
    6.8252   20.6960   -2.5283 H   0  0  0  0  0  0  0  0  0  0  0  0
    6.8252   20.6960   18.5577 H   0  0  0  0  0  0  0  0  0  0  0  0
    4.9434   16.4135   -2.5455 H   0  0  0  0  0  0  0  0  0  0  0  0
    4.9434   16.4135   18.5405 H   0  0  0  0  0  0  0  0  0  0  0  0
    2.4950   16.4230   -2.6007 H   0  0  0  0  0  0  0  0  0  0  0  0
    2.4950   16.4230   18.4853 H   0  0  0  0  0  0  0  0  0  0  0  0
   23.5810   16.4230   -2.6007 H   0  0  0  0  0  0  0  0  0  0  0  0
   23.5810   16.4230   18.4853 H   0  0  0  0  0  0  0  0  0  0  0  0
   16.4311    2.4719   -2.6019 H   0  0  0  0  0  0  0  0  0  0  0  0
   16.4311    2.4719   18.4841 H   0  0  0  0  0  0  0  0  0  0  0  0
   16.4311   23.5579   -2.6019 H   0  0  0  0  0  0  0  0  0  0  0  0
   16.4311   23.5579   18.4841 H   0  0  0  0  0  0  0  0  0  0  0  0
   16.4160    4.9325   -2.5451 H   0  0  0  0  0  0  0  0  0  0  0  0
   16.4160    4.9325   18.5409 H   0  0  0  0  0  0  0  0  0  0  0  0
   -0.3896    6.8250   -2.5281 H   0  0  0  0  0  0  0  0  0  0  0  0
   -0.3896    6.8250   18.5579 H   0  0  0  0  0  0  0  0  0  0  0  0
   20.6964    6.8250   -2.5281 H   0  0  0  0  0  0  0  0  0  0  0  0
   20.6964    6.8250   18.5579 H   0  0  0  0  0  0  0  0  0  0  0  0
   -0.3899    9.2013   -2.5288 H   0  0  0  0  0  0  0  0  0  0  0  0
   -0.3899    9.2013   18.5572 H   0  0  0  0  0  0  0  0  0  0  0  0
   20.6961    9.2013   -2.5288 H   0  0  0  0  0  0  0  0  0  0  0  0
   20.6961    9.2013   18.5572 H   0  0  0  0  0  0  0  0  0  0  0  0
   -0.3904   11.0946   -2.5431 H   0  0  0  0  0  0  0  0  0  0  0  0
   -0.3904   11.0946   18.5429 H   0  0  0  0  0  0  0  0  0  0  0  0
   20.6956   11.0946   -2.5431 H   0  0  0  0  0  0  0  0  0  0  0  0
   20.6956   11.0946   18.5429 H   0  0  0  0  0  0  0  0  0  0  0  0
   -0.4048   13.5531   -2.5981 H   0  0  0  0  0  0  0  0  0  0  0  0
   -0.4048   13.5531   18.4879 H   0  0  0  0  0  0  0  0  0  0  0  0
   20.6812   13.5531   -2.5981 H   0  0  0  0  0  0  0  0  0  0  0  0
   20.6812   13.5531   18.4879 H   0  0  0  0  0  0  0  0  0  0  0  0
   16.4303   13.5532   -2.4642 H   0  0  0  0  0  0  0  0  0  0  0  0
   16.4303   13.5532   18.6218 H   0  0  0  0  0  0  0  0  0  0  0  0
   16.4140   11.0962   -2.5216 H   0  0  0  0  0  0  0  0  0  0  0  0
   16.4140   11.0962   18.5644 H   0  0  0  0  0  0  0  0  0  0  0  0
   16.4140    9.2014   -2.5352 H   0  0  0  0  0  0  0  0  0  0  0  0
   16.4140    9.2014   18.5508 H   0  0  0  0  0  0  0  0  0  0  0  0
   16.4144    6.8255   -2.5318 H   0  0  0  0  0  0  0  0  0  0  0  0
   16.4144    6.8255   18.5542 H   0  0  0  0  0  0  0  0  0  0  0  0
   -0.3903    4.9314   -2.5135 H   0  0  0  0  0  0  0  0  0  0  0  0
   -0.3903    4.9314   18.5725 H   0  0  0  0  0  0  0  0  0  0  0  0
   20.6957    4.9314   -2.5135 H   0  0  0  0  0  0  0  0  0  0  0  0
   20.6957    4.9314   18.5725 H   0  0  0  0  0  0  0  0  0  0  0  0
   -0.4064    2.4711   -2.4575 H   0  0  0  0  0  0  0  0  0  0  0  0
   -0.4064    2.4711   18.6285 H   0  0  0  0  0  0  0  0  0  0  0  0
   -0.4064   23.5571   -2.4575 H   0  0  0  0  0  0  0  0  0  0  0  0
   -0.4064   23.5571   18.6285 H   0  0  0  0  0  0  0  0  0  0  0  0
   20.6796    2.4711   -2.4575 H   0  0  0  0  0  0  0  0  0  0  0  0
   20.6796    2.4711   18.6285 H   0  0  0  0  0  0  0  0  0  0  0  0
   20.6796   23.5571   -2.4575 H   0  0  0  0  0  0  0  0  0  0  0  0
   20.6796   23.5571   18.6285 H   0  0  0  0  0  0  0  0  0  0  0  0
   -2.6039   16.4189    2.4922 H   0  0  0  0  0  0  0  0  0  0  0  0
   -2.6039   16.4189   23.5782 H   0  0  0  0  0  0  0  0  0  0  0  0
   18.4821   16.4189    2.4922 H   0  0  0  0  0  0  0  0  0  0  0  0
   18.4821   16.4189   23.5782 H   0  0  0  0  0  0  0  0  0  0  0  0
   -2.5464   16.4070    4.9261 H   0  0  0  0  0  0  0  0  0  0  0  0
   18.5396   16.4070    4.9261 H   0  0  0  0  0  0  0  0  0  0  0  0
   -2.5298   -0.3920    6.8254 H   0  0  0  0  0  0  0  0  0  0  0  0
   -2.5298   20.6940    6.8254 H   0  0  0  0  0  0  0  0  0  0  0  0
   18.5562   -0.3920    6.8254 H   0  0  0  0  0  0  0  0  0  0  0  0
   18.5562   20.6940    6.8254 H   0  0  0  0  0  0  0  0  0  0  0  0
   -2.5302   -0.3923    9.1995 H   0  0  0  0  0  0  0  0  0  0  0  0
   -2.5302   20.6937    9.1995 H   0  0  0  0  0  0  0  0  0  0  0  0
   18.5558   -0.3923    9.1995 H   0  0  0  0  0  0  0  0  0  0  0  0
   18.5558   20.6937    9.1995 H   0  0  0  0  0  0  0  0  0  0  0  0
   -2.5427   -0.3847   11.0977 H   0  0  0  0  0  0  0  0  0  0  0  0
   -2.5427   20.7013   11.0977 H   0  0  0  0  0  0  0  0  0  0  0  0
   18.5433   -0.3847   11.0977 H   0  0  0  0  0  0  0  0  0  0  0  0
   18.5433   20.7013   11.0977 H   0  0  0  0  0  0  0  0  0  0  0  0
   -2.6012   -0.3961   13.5325 H   0  0  0  0  0  0  0  0  0  0  0  0
   -2.6012   20.6899   13.5325 H   0  0  0  0  0  0  0  0  0  0  0  0
   18.4848   -0.3961   13.5325 H   0  0  0  0  0  0  0  0  0  0  0  0
   18.4848   20.6899   13.5325 H   0  0  0  0  0  0  0  0  0  0  0  0
   -2.4638   16.4166   13.5326 H   0  0  0  0  0  0  0  0  0  0  0  0
   18.6222   16.4166   13.5326 H   0  0  0  0  0  0  0  0  0  0  0  0
   -2.5246   16.4066   11.0973 H   0  0  0  0  0  0  0  0  0  0  0  0
   18.5614   16.4066   11.0973 H   0  0  0  0  0  0  0  0  0  0  0  0
   -2.5371   16.4144    9.1987 H   0  0  0  0  0  0  0  0  0  0  0  0
   18.5489   16.4144    9.1987 H   0  0  0  0  0  0  0  0  0  0  0  0
   -2.5323   16.4145    6.8248 H   0  0  0  0  0  0  0  0  0  0  0  0
   18.5537   16.4145    6.8248 H   0  0  0  0  0  0  0  0  0  0  0  0
   -2.5162   -0.3831    4.9269 H   0  0  0  0  0  0  0  0  0  0  0  0
   -2.5162   20.7029    4.9269 H   0  0  0  0  0  0  0  0  0  0  0  0
   18.5698   -0.3831    4.9269 H   0  0  0  0  0  0  0  0  0  0  0  0
   18.5698   20.7029    4.9269 H   0  0  0  0  0  0  0  0  0  0  0  0
   -2.4557   -0.3939    2.4929 H   0  0  0  0  0  0  0  0  0  0  0  0
   -2.4557   -0.3939   23.5789 H   0  0  0  0  0  0  0  0  0  0  0  0
   -2.4557   20.6921    2.4929 H   0  0  0  0  0  0  0  0  0  0  0  0
   -2.4557   20.6921   23.5789 H   0  0  0  0  0  0  0  0  0  0  0  0
   18.6303   -0.3939    2.4929 H   0  0  0  0  0  0  0  0  0  0  0  0
   18.6303   -0.3939   23.5789 H   0  0  0  0  0  0  0  0  0  0  0  0
   18.6303   20.6921    2.4929 H   0  0  0  0  0  0  0  0  0  0  0  0
   18.6303   20.6921   23.5789 H   0  0  0  0  0  0  0  0  0  0  0  0
   13.9614   10.5442   10.5430 C   0  0  0  0  0  0  0  0  0  0  0  0
   15.4335   10.5455   10.5413 C   0  0  0  0  0  0  0  0  0  0  0  0
   16.1228   11.7518   10.5816 C   0  0  0  0  0  0  0  0  0  0  0  0
   -3.5887   11.7443   10.5607 C   0  0  0  0  0  0  0  0  0  0  0  0
   17.4973   11.7443   10.5607 C   0  0  0  0  0  0  0  0  0  0  0  0
   -2.8719   10.5451   10.5446 C   0  0  0  0  0  0  0  0  0  0  0  0
   18.2141   10.5451   10.5446 C   0  0  0  0  0  0  0  0  0  0  0  0
   -1.4119   10.5451   10.5447 C   0  0  0  0  0  0  0  0  0  0  0  0
   19.6741   10.5451   10.5447 C   0  0  0  0  0  0  0  0  0  0  0  0
   -0.6860    9.3547   10.5425 C   0  0  0  0  0  0  0  0  0  0  0  0
   20.4000    9.3547   10.5425 C   0  0  0  0  0  0  0  0  0  0  0  0
    0.6860    9.3545   10.5412 C   0  0  0  0  0  0  0  0  0  0  0  0
   21.7720    9.3545   10.5412 C   0  0  0  0  0  0  0  0  0  0  0  0
    1.4126   10.5445   10.5423 C   0  0  0  0  0  0  0  0  0  0  0  0
   22.4986   10.5445   10.5423 C   0  0  0  0  0  0  0  0  0  0  0  0
    2.8725   10.5436   10.5422 C   0  0  0  0  0  0  0  0  0  0  0  0
   23.9585   10.5436   10.5422 C   0  0  0  0  0  0  0  0  0  0  0  0
    3.5884    9.3438   10.5566 C   0  0  0  0  0  0  0  0  0  0  0  0
   24.6744    9.3438   10.5566 C   0  0  0  0  0  0  0  0  0  0  0  0
    4.9629    9.3358   10.5797 C   0  0  0  0  0  0  0  0  0  0  0  0
    5.6531   10.5417   10.5425 C   0  0  0  0  0  0  0  0  0  0  0  0
    7.1250   10.5401   10.5441 C   0  0  0  0  0  0  0  0  0  0  0  0
    4.9643   11.7483   10.5047 C   0  0  0  0  0  0  0  0  0  0  0  0
    3.5897   11.7426   10.5279 C   0  0  0  0  0  0  0  0  0  0  0  0
   24.6757   11.7426   10.5279 C   0  0  0  0  0  0  0  0  0  0  0  0
    0.6869   11.7350   10.5446 C   0  0  0  0  0  0  0  0  0  0  0  0
   21.7729   11.7350   10.5446 C   0  0  0  0  0  0  0  0  0  0  0  0
   -0.6852   11.7349   10.5459 C   0  0  0  0  0  0  0  0  0  0  0  0
   20.4008   11.7349   10.5459 C   0  0  0  0  0  0  0  0  0  0  0  0
   -3.5887    9.3460   10.5271 C   0  0  0  0  0  0  0  0  0  0  0  0
   17.4973    9.3460   10.5271 C   0  0  0  0  0  0  0  0  0  0  0  0
   16.1228    9.3394   10.5026 C   0  0  0  0  0  0  0  0  0  0  0  0
   10.5438   13.9527   10.5455 C   0  0  0  0  0  0  0  0  0  0  0  0
   10.5442   15.4235   10.5440 C   0  0  0  0  0  0  0  0  0  0  0  0
    9.3393   16.1086   10.5023 C   0  0  0  0  0  0  0  0  0  0  0  0
    9.3462   -3.6016   10.5273 C   0  0  0  0  0  0  0  0  0  0  0  0
    9.3462   17.4844   10.5273 C   0  0  0  0  0  0  0  0  0  0  0  0
   10.5439   -2.8808   10.5446 C   0  0  0  0  0  0  0  0  0  0  0  0
   10.5439   18.2052   10.5446 C   0  0  0  0  0  0  0  0  0  0  0  0
   10.5437   -1.4165   10.5444 C   0  0  0  0  0  0  0  0  0  0  0  0
   10.5437   19.6695   10.5444 C   0  0  0  0  0  0  0  0  0  0  0  0
   11.7327   -0.6873   10.5457 C   0  0  0  0  0  0  0  0  0  0  0  0
   11.7327   20.3987   10.5457 C   0  0  0  0  0  0  0  0  0  0  0  0
   11.7321    0.6863   10.5450 C   0  0  0  0  0  0  0  0  0  0  0  0
   11.7321   21.7723   10.5450 C   0  0  0  0  0  0  0  0  0  0  0  0
   10.5431    1.4154   10.5427 C   0  0  0  0  0  0  0  0  0  0  0  0
   10.5431   22.5014   10.5427 C   0  0  0  0  0  0  0  0  0  0  0  0
   10.5425    2.8796   10.5423 C   0  0  0  0  0  0  0  0  0  0  0  0
   10.5425   23.9656   10.5423 C   0  0  0  0  0  0  0  0  0  0  0  0
   11.7402    3.6005   10.5284 C   0  0  0  0  0  0  0  0  0  0  0  0
   11.7402   24.6865   10.5284 C   0  0  0  0  0  0  0  0  0  0  0  0
   11.7469    4.9763   10.5038 C   0  0  0  0  0  0  0  0  0  0  0  0
   10.5423    5.6618   10.5430 C   0  0  0  0  0  0  0  0  0  0  0  0
   10.5430    7.1327   10.5458 C   0  0  0  0  0  0  0  0  0  0  0  0
    9.3376    4.9764   10.5811 C   0  0  0  0  0  0  0  0  0  0  0  0
    9.3448    3.6005   10.5561 C   0  0  0  0  0  0  0  0  0  0  0  0
    9.3448   24.6865   10.5561 C   0  0  0  0  0  0  0  0  0  0  0  0
    9.3542    0.6860   10.5414 C   0  0  0  0  0  0  0  0  0  0  0  0
    9.3542   21.7720   10.5414 C   0  0  0  0  0  0  0  0  0  0  0  0
    9.3545   -0.6875   10.5424 C   0  0  0  0  0  0  0  0  0  0  0  0
    9.3545   20.3985   10.5424 C   0  0  0  0  0  0  0  0  0  0  0  0
   11.7419   -3.6009   10.5610 C   0  0  0  0  0  0  0  0  0  0  0  0
   11.7419   17.4851   10.5610 C   0  0  0  0  0  0  0  0  0  0  0  0
   11.7488   16.1092   10.5851 C   0  0  0  0  0  0  0  0  0  0  0  0
   10.5412   10.5433   13.9328 C   0  0  0  0  0  0  0  0  0  0  0  0
   10.5421   10.5452   15.4150 C   0  0  0  0  0  0  0  0  0  0  0  0
   10.5025    9.3417   16.1098 C   0  0  0  0  0  0  0  0  0  0  0  0
   10.5288    9.3459   -3.5990 C   0  0  0  0  0  0  0  0  0  0  0  0
   10.5288    9.3459   17.4870 C   0  0  0  0  0  0  0  0  0  0  0  0
   10.5461   10.5449   -2.8796 C   0  0  0  0  0  0  0  0  0  0  0  0
   10.5461   10.5449   18.2064 C   0  0  0  0  0  0  0  0  0  0  0  0
   10.5461   10.5449   -1.4166 C   0  0  0  0  0  0  0  0  0  0  0  0
   10.5461   10.5449   19.6694 C   0  0  0  0  0  0  0  0  0  0  0  0
   10.5473   11.7322   -0.6854 C   0  0  0  0  0  0  0  0  0  0  0  0
   10.5473   11.7322   20.4006 C   0  0  0  0  0  0  0  0  0  0  0  0
   10.5458   11.7322    0.6878 C   0  0  0  0  0  0  0  0  0  0  0  0
   10.5458   11.7322   21.7738 C   0  0  0  0  0  0  0  0  0  0  0  0
   10.5437   10.5444    1.4181 C   0  0  0  0  0  0  0  0  0  0  0  0
   10.5437   10.5444   22.5041 C   0  0  0  0  0  0  0  0  0  0  0  0
   10.5431   10.5438    2.8810 C   0  0  0  0  0  0  0  0  0  0  0  0
   10.5431   10.5438   23.9670 C   0  0  0  0  0  0  0  0  0  0  0  0
   10.5281   11.7431    3.6001 C   0  0  0  0  0  0  0  0  0  0  0  0
   10.5281   11.7431   24.6861 C   0  0  0  0  0  0  0  0  0  0  0  0
   10.5023   11.7466    4.9773 C   0  0  0  0  0  0  0  0  0  0  0  0
   10.5419   10.5428    5.6718 C   0  0  0  0  0  0  0  0  0  0  0  0
   10.5424   10.5413    7.1535 C   0  0  0  0  0  0  0  0  0  0  0  0
   10.5822    9.3394    4.9766 C   0  0  0  0  0  0  0  0  0  0  0  0
   10.5577    9.3442    3.5994 C   0  0  0  0  0  0  0  0  0  0  0  0
   10.5577    9.3442   24.6854 C   0  0  0  0  0  0  0  0  0  0  0  0
   10.5429    9.3569    0.6872 C   0  0  0  0  0  0  0  0  0  0  0  0
   10.5429    9.3569   21.7732 C   0  0  0  0  0  0  0  0  0  0  0  0
   10.5441    9.3571   -0.6861 C   0  0  0  0  0  0  0  0  0  0  0  0
   10.5441    9.3571   20.3999 C   0  0  0  0  0  0  0  0  0  0  0  0
   10.5624   11.7439   -3.5992 C   0  0  0  0  0  0  0  0  0  0  0  0
   10.5624   11.7439   17.4868 C   0  0  0  0  0  0  0  0  0  0  0  0
   10.5848   11.7487   16.1096 C   0  0  0  0  0  0  0  0  0  0  0  0
    0.8874   -2.5290   -2.5313 C   0  0  0  0  0  0  0  0  0  0  0  0
    0.8874   -2.5290   18.5547 C   0  0  0  0  0  0  0  0  0  0  0  0
    0.8874   18.5570   -2.5313 C   0  0  0  0  0  0  0  0  0  0  0  0
    0.8874   18.5570   18.5547 C   0  0  0  0  0  0  0  0  0  0  0  0
   21.9734   -2.5290   -2.5313 C   0  0  0  0  0  0  0  0  0  0  0  0
   21.9734   -2.5290   18.5547 C   0  0  0  0  0  0  0  0  0  0  0  0
   21.9734   18.5570   -2.5313 C   0  0  0  0  0  0  0  0  0  0  0  0
   21.9734   18.5570   18.5547 C   0  0  0  0  0  0  0  0  0  0  0  0
    2.3594   -2.5303   -2.5291 C   0  0  0  0  0  0  0  0  0  0  0  0
    2.3594   -2.5303   18.5569 C   0  0  0  0  0  0  0  0  0  0  0  0
    2.3594   18.5557   -2.5291 C   0  0  0  0  0  0  0  0  0  0  0  0
    2.3594   18.5557   18.5569 C   0  0  0  0  0  0  0  0  0  0  0  0
   23.4454   -2.5303   -2.5291 C   0  0  0  0  0  0  0  0  0  0  0  0
   23.4454   -2.5303   18.5569 C   0  0  0  0  0  0  0  0  0  0  0  0
   23.4454   18.5557   -2.5291 C   0  0  0  0  0  0  0  0  0  0  0  0
   23.4454   18.5557   18.5569 C   0  0  0  0  0  0  0  0  0  0  0  0
    3.0494   -1.3243   -2.4896 C   0  0  0  0  0  0  0  0  0  0  0  0
    3.0494   -1.3243   18.5964 C   0  0  0  0  0  0  0  0  0  0  0  0
    3.0494   19.7617   -2.4896 C   0  0  0  0  0  0  0  0  0  0  0  0
    3.0494   19.7617   18.5964 C   0  0  0  0  0  0  0  0  0  0  0  0
   24.1354   -1.3243   -2.4896 C   0  0  0  0  0  0  0  0  0  0  0  0
   24.1354   -1.3243   18.5964 C   0  0  0  0  0  0  0  0  0  0  0  0
   24.1354   19.7617   -2.4896 C   0  0  0  0  0  0  0  0  0  0  0  0
   24.1354   19.7617   18.5964 C   0  0  0  0  0  0  0  0  0  0  0  0
    4.4239   -1.3317   -2.5127 C   0  0  0  0  0  0  0  0  0  0  0  0
    4.4239   -1.3317   18.5733 C   0  0  0  0  0  0  0  0  0  0  0  0
    4.4239   19.7543   -2.5127 C   0  0  0  0  0  0  0  0  0  0  0  0
    4.4239   19.7543   18.5733 C   0  0  0  0  0  0  0  0  0  0  0  0
   25.5099   -1.3317   -2.5127 C   0  0  0  0  0  0  0  0  0  0  0  0
   25.5099   -1.3317   18.5733 C   0  0  0  0  0  0  0  0  0  0  0  0
   25.5099   19.7543   -2.5127 C   0  0  0  0  0  0  0  0  0  0  0  0
   25.5099   19.7543   18.5733 C   0  0  0  0  0  0  0  0  0  0  0  0
    5.1401   -2.5313   -2.5291 C   0  0  0  0  0  0  0  0  0  0  0  0
    5.1401   -2.5313   18.5569 C   0  0  0  0  0  0  0  0  0  0  0  0
    5.1401   18.5547   -2.5291 C   0  0  0  0  0  0  0  0  0  0  0  0
    5.1401   18.5547   18.5569 C   0  0  0  0  0  0  0  0  0  0  0  0
    6.6001   -2.5318   -2.5296 C   0  0  0  0  0  0  0  0  0  0  0  0
    6.6001   -2.5318   18.5564 C   0  0  0  0  0  0  0  0  0  0  0  0
    6.6001   18.5542   -2.5296 C   0  0  0  0  0  0  0  0  0  0  0  0
    6.6001   18.5542   18.5564 C   0  0  0  0  0  0  0  0  0  0  0  0
    7.3260   -3.7221   -2.5312 C   0  0  0  0  0  0  0  0  0  0  0  0
    7.3260   -3.7221   18.5548 C   0  0  0  0  0  0  0  0  0  0  0  0
    7.3260   17.3639   -2.5312 C   0  0  0  0  0  0  0  0  0  0  0  0
    7.3260   17.3639   18.5548 C   0  0  0  0  0  0  0  0  0  0  0  0
    8.6981   -3.7221   -2.5327 C   0  0  0  0  0  0  0  0  0  0  0  0
    8.6981   -3.7221   18.5533 C   0  0  0  0  0  0  0  0  0  0  0  0
    8.6981   17.3639   -2.5327 C   0  0  0  0  0  0  0  0  0  0  0  0
    8.6981   17.3639   18.5533 C   0  0  0  0  0  0  0  0  0  0  0  0
    9.4248   -2.5322   -2.5316 C   0  0  0  0  0  0  0  0  0  0  0  0
    9.4248   -2.5322   18.5544 C   0  0  0  0  0  0  0  0  0  0  0  0
    9.4248   18.5538   -2.5316 C   0  0  0  0  0  0  0  0  0  0  0  0
    9.4248   18.5538   18.5544 C   0  0  0  0  0  0  0  0  0  0  0  0
   10.8848   -2.5322   -2.5320 C   0  0  0  0  0  0  0  0  0  0  0  0
   10.8848   -2.5322   18.5540 C   0  0  0  0  0  0  0  0  0  0  0  0
   10.8848   18.5538   -2.5320 C   0  0  0  0  0  0  0  0  0  0  0  0
   10.8848   18.5538   18.5540 C   0  0  0  0  0  0  0  0  0  0  0  0
   11.6021   -3.7310   -2.5183 C   0  0  0  0  0  0  0  0  0  0  0  0
   11.6021   -3.7310   18.5677 C   0  0  0  0  0  0  0  0  0  0  0  0
   11.6021   17.3550   -2.5183 C   0  0  0  0  0  0  0  0  0  0  0  0
   11.6021   17.3550   18.5677 C   0  0  0  0  0  0  0  0  0  0  0  0
   12.9766   -3.7380   -2.4948 C   0  0  0  0  0  0  0  0  0  0  0  0
   12.9766   -3.7380   18.5912 C   0  0  0  0  0  0  0  0  0  0  0  0
   12.9766   17.3480   -2.4948 C   0  0  0  0  0  0  0  0  0  0  0  0
   12.9766   17.3480   18.5912 C   0  0  0  0  0  0  0  0  0  0  0  0
   13.6652   -2.5313   -2.5312 C   0  0  0  0  0  0  0  0  0  0  0  0
   13.6652   -2.5313   18.5548 C   0  0  0  0  0  0  0  0  0  0  0  0
   13.6652   18.5547   -2.5312 C   0  0  0  0  0  0  0  0  0  0  0  0
   13.6652   18.5547   18.5548 C   0  0  0  0  0  0  0  0  0  0  0  0
   15.1373   -2.5296   -2.5312 C   0  0  0  0  0  0  0  0  0  0  0  0
   15.1373   -2.5296   18.5548 C   0  0  0  0  0  0  0  0  0  0  0  0
   15.1373   18.5564   -2.5312 C   0  0  0  0  0  0  0  0  0  0  0  0
   15.1373   18.5564   18.5548 C   0  0  0  0  0  0  0  0  0  0  0  0
   12.9755   -1.3254   -2.5677 C   0  0  0  0  0  0  0  0  0  0  0  0
   12.9755   -1.3254   18.5183 C   0  0  0  0  0  0  0  0  0  0  0  0
   12.9755   19.7606   -2.5677 C   0  0  0  0  0  0  0  0  0  0  0  0
   12.9755   19.7606   18.5183 C   0  0  0  0  0  0  0  0  0  0  0  0
   11.6009   -1.3327   -2.5453 C   0  0  0  0  0  0  0  0  0  0  0  0
   11.6009   -1.3327   18.5407 C   0  0  0  0  0  0  0  0  0  0  0  0
   11.6009   19.7533   -2.5453 C   0  0  0  0  0  0  0  0  0  0  0  0
   11.6009   19.7533   18.5407 C   0  0  0  0  0  0  0  0  0  0  0  0
    8.6987   -1.3420   -2.5298 C   0  0  0  0  0  0  0  0  0  0  0  0
    8.6987   -1.3420   18.5562 C   0  0  0  0  0  0  0  0  0  0  0  0
    8.6987   19.7440   -2.5298 C   0  0  0  0  0  0  0  0  0  0  0  0
    8.6987   19.7440   18.5562 C   0  0  0  0  0  0  0  0  0  0  0  0
    7.3266   -1.3417   -2.5291 C   0  0  0  0  0  0  0  0  0  0  0  0
    7.3266   -1.3417   18.5569 C   0  0  0  0  0  0  0  0  0  0  0  0
    7.3266   19.7443   -2.5291 C   0  0  0  0  0  0  0  0  0  0  0  0
    7.3266   19.7443   18.5569 C   0  0  0  0  0  0  0  0  0  0  0  0
    4.4232   -3.7304   -2.5454 C   0  0  0  0  0  0  0  0  0  0  0  0
    4.4232   -3.7304   18.5406 C   0  0  0  0  0  0  0  0  0  0  0  0
    4.4232   17.3556   -2.5454 C   0  0  0  0  0  0  0  0  0  0  0  0
    4.4232   17.3556   18.5406 C   0  0  0  0  0  0  0  0  0  0  0  0
   25.5092   -3.7304   -2.5454 C   0  0  0  0  0  0  0  0  0  0  0  0
   25.5092   -3.7304   18.5406 C   0  0  0  0  0  0  0  0  0  0  0  0
   25.5092   17.3556   -2.5454 C   0  0  0  0  0  0  0  0  0  0  0  0
   25.5092   17.3556   18.5406 C   0  0  0  0  0  0  0  0  0  0  0  0
    3.0485   -3.7367   -2.5681 C   0  0  0  0  0  0  0  0  0  0  0  0
    3.0485   -3.7367   18.5179 C   0  0  0  0  0  0  0  0  0  0  0  0
    3.0485   17.3493   -2.5681 C   0  0  0  0  0  0  0  0  0  0  0  0
    3.0485   17.3493   18.5179 C   0  0  0  0  0  0  0  0  0  0  0  0
   24.1345   -3.7367   -2.5681 C   0  0  0  0  0  0  0  0  0  0  0  0
   24.1345   -3.7367   18.5179 C   0  0  0  0  0  0  0  0  0  0  0  0
   24.1345   17.3493   -2.5681 C   0  0  0  0  0  0  0  0  0  0  0  0
   24.1345   17.3493   18.5179 C   0  0  0  0  0  0  0  0  0  0  0  0
   -2.5306    0.8799   -2.5325 C   0  0  0  0  0  0  0  0  0  0  0  0
   -2.5306    0.8799   18.5535 C   0  0  0  0  0  0  0  0  0  0  0  0
   -2.5306   21.9659   -2.5325 C   0  0  0  0  0  0  0  0  0  0  0  0
   -2.5306   21.9659   18.5535 C   0  0  0  0  0  0  0  0  0  0  0  0
   18.5554    0.8799   -2.5325 C   0  0  0  0  0  0  0  0  0  0  0  0
   18.5554    0.8799   18.5535 C   0  0  0  0  0  0  0  0  0  0  0  0
   18.5554   21.9659   -2.5325 C   0  0  0  0  0  0  0  0  0  0  0  0
   18.5554   21.9659   18.5535 C   0  0  0  0  0  0  0  0  0  0  0  0
   -2.5306    2.3509   -2.5309 C   0  0  0  0  0  0  0  0  0  0  0  0
   -2.5306    2.3509   18.5551 C   0  0  0  0  0  0  0  0  0  0  0  0
   -2.5306   23.4369   -2.5309 C   0  0  0  0  0  0  0  0  0  0  0  0
   -2.5306   23.4369   18.5551 C   0  0  0  0  0  0  0  0  0  0  0  0
   18.5554    2.3509   -2.5309 C   0  0  0  0  0  0  0  0  0  0  0  0
   18.5554    2.3509   18.5551 C   0  0  0  0  0  0  0  0  0  0  0  0
   18.5554   23.4369   -2.5309 C   0  0  0  0  0  0  0  0  0  0  0  0
   18.5554   23.4369   18.5551 C   0  0  0  0  0  0  0  0  0  0  0  0
   -3.7351    3.0366   -2.5708 C   0  0  0  0  0  0  0  0  0  0  0  0
   -3.7351    3.0366   18.5152 C   0  0  0  0  0  0  0  0  0  0  0  0
   -3.7351   24.1226   -2.5708 C   0  0  0  0  0  0  0  0  0  0  0  0
   -3.7351   24.1226   18.5152 C   0  0  0  0  0  0  0  0  0  0  0  0
   17.3509    3.0366   -2.5708 C   0  0  0  0  0  0  0  0  0  0  0  0
   17.3509    3.0366   18.5152 C   0  0  0  0  0  0  0  0  0  0  0  0
   17.3509   24.1226   -2.5708 C   0  0  0  0  0  0  0  0  0  0  0  0
   17.3509   24.1226   18.5152 C   0  0  0  0  0  0  0  0  0  0  0  0
   -3.7280    4.4123   -2.5458 C   0  0  0  0  0  0  0  0  0  0  0  0
   -3.7280    4.4123   18.5402 C   0  0  0  0  0  0  0  0  0  0  0  0
   -3.7280   25.4983   -2.5458 C   0  0  0  0  0  0  0  0  0  0  0  0
   -3.7280   25.4983   18.5402 C   0  0  0  0  0  0  0  0  0  0  0  0
   17.3580    4.4123   -2.5458 C   0  0  0  0  0  0  0  0  0  0  0  0
   17.3580    4.4123   18.5402 C   0  0  0  0  0  0  0  0  0  0  0  0
   17.3580   25.4983   -2.5458 C   0  0  0  0  0  0  0  0  0  0  0  0
   17.3580   25.4983   18.5402 C   0  0  0  0  0  0  0  0  0  0  0  0
   -2.5303    5.1331   -2.5296 C   0  0  0  0  0  0  0  0  0  0  0  0
   -2.5303    5.1331   18.5564 C   0  0  0  0  0  0  0  0  0  0  0  0
   18.5557    5.1331   -2.5296 C   0  0  0  0  0  0  0  0  0  0  0  0
   18.5557    5.1331   18.5564 C   0  0  0  0  0  0  0  0  0  0  0  0
   -2.5305    6.5973   -2.5300 C   0  0  0  0  0  0  0  0  0  0  0  0
   -2.5305    6.5973   18.5560 C   0  0  0  0  0  0  0  0  0  0  0  0
   18.5555    6.5973   -2.5300 C   0  0  0  0  0  0  0  0  0  0  0  0
   18.5555    6.5973   18.5560 C   0  0  0  0  0  0  0  0  0  0  0  0
   -1.3415    7.3265   -2.5293 C   0  0  0  0  0  0  0  0  0  0  0  0
   -1.3415    7.3265   18.5567 C   0  0  0  0  0  0  0  0  0  0  0  0
   19.7445    7.3265   -2.5293 C   0  0  0  0  0  0  0  0  0  0  0  0
   19.7445    7.3265   18.5567 C   0  0  0  0  0  0  0  0  0  0  0  0
   -1.3418    8.7001   -2.5300 C   0  0  0  0  0  0  0  0  0  0  0  0
   -1.3418    8.7001   18.5560 C   0  0  0  0  0  0  0  0  0  0  0  0
   19.7442    8.7001   -2.5300 C   0  0  0  0  0  0  0  0  0  0  0  0
   19.7442    8.7001   18.5560 C   0  0  0  0  0  0  0  0  0  0  0  0
   -2.5308    9.4292   -2.5317 C   0  0  0  0  0  0  0  0  0  0  0  0
   -2.5308    9.4292   18.5543 C   0  0  0  0  0  0  0  0  0  0  0  0
   18.5552    9.4292   -2.5317 C   0  0  0  0  0  0  0  0  0  0  0  0
   18.5552    9.4292   18.5543 C   0  0  0  0  0  0  0  0  0  0  0  0
   -2.5309   10.8936   -2.5318 C   0  0  0  0  0  0  0  0  0  0  0  0
   -2.5309   10.8936   18.5542 C   0  0  0  0  0  0  0  0  0  0  0  0
   18.5551   10.8936   -2.5318 C   0  0  0  0  0  0  0  0  0  0  0  0
   18.5551   10.8936   18.5542 C   0  0  0  0  0  0  0  0  0  0  0  0
   -1.3328   11.6137   -2.5452 C   0  0  0  0  0  0  0  0  0  0  0  0
   -1.3328   11.6137   18.5408 C   0  0  0  0  0  0  0  0  0  0  0  0
   19.7532   11.6137   -2.5452 C   0  0  0  0  0  0  0  0  0  0  0  0
   19.7532   11.6137   18.5408 C   0  0  0  0  0  0  0  0  0  0  0  0
   -1.3253   12.9895   -2.5693 C   0  0  0  0  0  0  0  0  0  0  0  0
   -1.3253   12.9895   18.5167 C   0  0  0  0  0  0  0  0  0  0  0  0
   19.7607   12.9895   -2.5693 C   0  0  0  0  0  0  0  0  0  0  0  0
   19.7607   12.9895   18.5167 C   0  0  0  0  0  0  0  0  0  0  0  0
   -2.5302   13.6748   -2.5311 C   0  0  0  0  0  0  0  0  0  0  0  0
   -2.5302   13.6748   18.5549 C   0  0  0  0  0  0  0  0  0  0  0  0
   18.5558   13.6748   -2.5311 C   0  0  0  0  0  0  0  0  0  0  0  0
   18.5558   13.6748   18.5549 C   0  0  0  0  0  0  0  0  0  0  0  0
   -2.5301   15.1456   -2.5329 C   0  0  0  0  0  0  0  0  0  0  0  0
   -2.5301   15.1456   18.5531 C   0  0  0  0  0  0  0  0  0  0  0  0
   18.5559   15.1456   -2.5329 C   0  0  0  0  0  0  0  0  0  0  0  0
   18.5559   15.1456   18.5531 C   0  0  0  0  0  0  0  0  0  0  0  0
   -3.7351   12.9898   -2.4928 C   0  0  0  0  0  0  0  0  0  0  0  0
   -3.7351   12.9898   18.5932 C   0  0  0  0  0  0  0  0  0  0  0  0
   17.3509   12.9898   -2.4928 C   0  0  0  0  0  0  0  0  0  0  0  0
   17.3509   12.9898   18.5932 C   0  0  0  0  0  0  0  0  0  0  0  0
   -3.7287   11.6140   -2.5178 C   0  0  0  0  0  0  0  0  0  0  0  0
   -3.7287   11.6140   18.5682 C   0  0  0  0  0  0  0  0  0  0  0  0
   17.3573   11.6140   -2.5178 C   0  0  0  0  0  0  0  0  0  0  0  0
   17.3573   11.6140   18.5682 C   0  0  0  0  0  0  0  0  0  0  0  0
   -3.7199    8.7002   -2.5328 C   0  0  0  0  0  0  0  0  0  0  0  0
   -3.7199    8.7002   18.5532 C   0  0  0  0  0  0  0  0  0  0  0  0
   17.3661    8.7002   -2.5328 C   0  0  0  0  0  0  0  0  0  0  0  0
   17.3661    8.7002   18.5532 C   0  0  0  0  0  0  0  0  0  0  0  0
   -3.7194    7.3267   -2.5316 C   0  0  0  0  0  0  0  0  0  0  0  0
   -3.7194    7.3267   18.5544 C   0  0  0  0  0  0  0  0  0  0  0  0
   17.3666    7.3267   -2.5316 C   0  0  0  0  0  0  0  0  0  0  0  0
   17.3666    7.3267   18.5544 C   0  0  0  0  0  0  0  0  0  0  0  0
   -1.3327    4.4120   -2.5133 C   0  0  0  0  0  0  0  0  0  0  0  0
   -1.3327    4.4120   18.5727 C   0  0  0  0  0  0  0  0  0  0  0  0
   -1.3327   25.4980   -2.5133 C   0  0  0  0  0  0  0  0  0  0  0  0
   -1.3327   25.4980   18.5727 C   0  0  0  0  0  0  0  0  0  0  0  0
   19.7533    4.4120   -2.5133 C   0  0  0  0  0  0  0  0  0  0  0  0
   19.7533    4.4120   18.5727 C   0  0  0  0  0  0  0  0  0  0  0  0
   19.7533   25.4980   -2.5133 C   0  0  0  0  0  0  0  0  0  0  0  0
   19.7533   25.4980   18.5727 C   0  0  0  0  0  0  0  0  0  0  0  0
   -1.3260    3.0362   -2.4892 C   0  0  0  0  0  0  0  0  0  0  0  0
   -1.3260    3.0362   18.5968 C   0  0  0  0  0  0  0  0  0  0  0  0
   -1.3260   24.1222   -2.4892 C   0  0  0  0  0  0  0  0  0  0  0  0
   -1.3260   24.1222   18.5968 C   0  0  0  0  0  0  0  0  0  0  0  0
   19.7600    3.0362   -2.4892 C   0  0  0  0  0  0  0  0  0  0  0  0
   19.7600    3.0362   18.5968 C   0  0  0  0  0  0  0  0  0  0  0  0
   19.7600   24.1222   -2.4892 C   0  0  0  0  0  0  0  0  0  0  0  0
   19.7600   24.1222   18.5968 C   0  0  0  0  0  0  0  0  0  0  0  0
   -2.5284   -2.5289    0.8589 C   0  0  0  0  0  0  0  0  0  0  0  0
   -2.5284   -2.5289   21.9449 C   0  0  0  0  0  0  0  0  0  0  0  0
   -2.5284   18.5571    0.8589 C   0  0  0  0  0  0  0  0  0  0  0  0
   -2.5284   18.5571   21.9449 C   0  0  0  0  0  0  0  0  0  0  0  0
   18.5576   -2.5289    0.8589 C   0  0  0  0  0  0  0  0  0  0  0  0
   18.5576   -2.5289   21.9449 C   0  0  0  0  0  0  0  0  0  0  0  0
   18.5576   18.5571    0.8589 C   0  0  0  0  0  0  0  0  0  0  0  0
   18.5576   18.5571   21.9449 C   0  0  0  0  0  0  0  0  0  0  0  0
   -2.5291   -2.5304    2.3407 C   0  0  0  0  0  0  0  0  0  0  0  0
   -2.5291   -2.5304   23.4267 C   0  0  0  0  0  0  0  0  0  0  0  0
   -2.5291   18.5556    2.3407 C   0  0  0  0  0  0  0  0  0  0  0  0
   -2.5291   18.5556   23.4267 C   0  0  0  0  0  0  0  0  0  0  0  0
   18.5569   -2.5304    2.3407 C   0  0  0  0  0  0  0  0  0  0  0  0
   18.5569   -2.5304   23.4267 C   0  0  0  0  0  0  0  0  0  0  0  0
   18.5569   18.5556    2.3407 C   0  0  0  0  0  0  0  0  0  0  0  0
   18.5569   18.5556   23.4267 C   0  0  0  0  0  0  0  0  0  0  0  0
   -2.5711   -3.7341    3.0351 C   0  0  0  0  0  0  0  0  0  0  0  0
   -2.5711   -3.7341   24.1211 C   0  0  0  0  0  0  0  0  0  0  0  0
   -2.5711   17.3519    3.0351 C   0  0  0  0  0  0  0  0  0  0  0  0
   -2.5711   17.3519   24.1211 C   0  0  0  0  0  0  0  0  0  0  0  0
   18.5149   -3.7341    3.0351 C   0  0  0  0  0  0  0  0  0  0  0  0
   18.5149   -3.7341   24.1211 C   0  0  0  0  0  0  0  0  0  0  0  0
   18.5149   17.3519    3.0351 C   0  0  0  0  0  0  0  0  0  0  0  0
   18.5149   17.3519   24.1211 C   0  0  0  0  0  0  0  0  0  0  0  0
   -2.5468   -3.7304    4.4124 C   0  0  0  0  0  0  0  0  0  0  0  0
   -2.5468   -3.7304   25.4984 C   0  0  0  0  0  0  0  0  0  0  0  0
   -2.5468   17.3556    4.4124 C   0  0  0  0  0  0  0  0  0  0  0  0
   -2.5468   17.3556   25.4984 C   0  0  0  0  0  0  0  0  0  0  0  0
   18.5392   -3.7304    4.4124 C   0  0  0  0  0  0  0  0  0  0  0  0
   18.5392   -3.7304   25.4984 C   0  0  0  0  0  0  0  0  0  0  0  0
   18.5392   17.3556    4.4124 C   0  0  0  0  0  0  0  0  0  0  0  0
   18.5392   17.3556   25.4984 C   0  0  0  0  0  0  0  0  0  0  0  0
   -2.5302   -2.5312    5.1315 C   0  0  0  0  0  0  0  0  0  0  0  0
   -2.5302   18.5548    5.1315 C   0  0  0  0  0  0  0  0  0  0  0  0
   18.5558   -2.5312    5.1315 C   0  0  0  0  0  0  0  0  0  0  0  0
   18.5558   18.5548    5.1315 C   0  0  0  0  0  0  0  0  0  0  0  0
   -2.5309   -2.5317    6.5945 C   0  0  0  0  0  0  0  0  0  0  0  0
   -2.5309   18.5543    6.5945 C   0  0  0  0  0  0  0  0  0  0  0  0
   18.5551   -2.5317    6.5945 C   0  0  0  0  0  0  0  0  0  0  0  0
   18.5551   18.5543    6.5945 C   0  0  0  0  0  0  0  0  0  0  0  0
   -2.5307   -1.3442    7.3255 C   0  0  0  0  0  0  0  0  0  0  0  0
   -2.5307   19.7418    7.3255 C   0  0  0  0  0  0  0  0  0  0  0  0
   18.5553   -1.3442    7.3255 C   0  0  0  0  0  0  0  0  0  0  0  0
   18.5553   19.7418    7.3255 C   0  0  0  0  0  0  0  0  0  0  0  0
   -2.5315   -1.3444    8.6988 C   0  0  0  0  0  0  0  0  0  0  0  0
   -2.5315   19.7416    8.6988 C   0  0  0  0  0  0  0  0  0  0  0  0
   18.5545   -1.3444    8.6988 C   0  0  0  0  0  0  0  0  0  0  0  0
   18.5545   19.7416    8.6988 C   0  0  0  0  0  0  0  0  0  0  0  0
   -2.5332   -2.5321    9.4294 C   0  0  0  0  0  0  0  0  0  0  0  0
   -2.5332   18.5539    9.4294 C   0  0  0  0  0  0  0  0  0  0  0  0
   18.5528   -2.5321    9.4294 C   0  0  0  0  0  0  0  0  0  0  0  0
   18.5528   18.5539    9.4294 C   0  0  0  0  0  0  0  0  0  0  0  0
   -2.5334   -2.5324   10.8924 C   0  0  0  0  0  0  0  0  0  0  0  0
   -2.5334   18.5536   10.8924 C   0  0  0  0  0  0  0  0  0  0  0  0
   18.5526   -2.5324   10.8924 C   0  0  0  0  0  0  0  0  0  0  0  0
   18.5526   18.5536   10.8924 C   0  0  0  0  0  0  0  0  0  0  0  0
   -2.5468   -1.3333   11.6117 C   0  0  0  0  0  0  0  0  0  0  0  0
   -2.5468   19.7527   11.6117 C   0  0  0  0  0  0  0  0  0  0  0  0
   18.5392   -1.3333   11.6117 C   0  0  0  0  0  0  0  0  0  0  0  0
   18.5392   19.7527   11.6117 C   0  0  0  0  0  0  0  0  0  0  0  0
   -2.5709   -1.3291   12.9889 C   0  0  0  0  0  0  0  0  0  0  0  0
   -2.5709   19.7569   12.9889 C   0  0  0  0  0  0  0  0  0  0  0  0
   18.5151   -1.3291   12.9889 C   0  0  0  0  0  0  0  0  0  0  0  0
   18.5151   19.7569   12.9889 C   0  0  0  0  0  0  0  0  0  0  0  0
   -2.5318   -2.5326   13.6836 C   0  0  0  0  0  0  0  0  0  0  0  0
   -2.5318   18.5534   13.6836 C   0  0  0  0  0  0  0  0  0  0  0  0
   18.5542   -2.5326   13.6836 C   0  0  0  0  0  0  0  0  0  0  0  0
   18.5542   18.5534   13.6836 C   0  0  0  0  0  0  0  0  0  0  0  0
   -2.5312   -2.5305   15.1658 C   0  0  0  0  0  0  0  0  0  0  0  0
   -2.5312   18.5555   15.1658 C   0  0  0  0  0  0  0  0  0  0  0  0
   18.5548   -2.5305   15.1658 C   0  0  0  0  0  0  0  0  0  0  0  0
   18.5548   18.5555   15.1658 C   0  0  0  0  0  0  0  0  0  0  0  0
   -2.4936   -3.7363   12.9894 C   0  0  0  0  0  0  0  0  0  0  0  0
   -2.4936   17.3497   12.9894 C   0  0  0  0  0  0  0  0  0  0  0  0
   18.5924   -3.7363   12.9894 C   0  0  0  0  0  0  0  0  0  0  0  0
   18.5924   17.3497   12.9894 C   0  0  0  0  0  0  0  0  0  0  0  0
   -2.5193   -3.7314   11.6121 C   0  0  0  0  0  0  0  0  0  0  0  0
   -2.5193   17.3546   11.6121 C   0  0  0  0  0  0  0  0  0  0  0  0
   18.5667   -3.7314   11.6121 C   0  0  0  0  0  0  0  0  0  0  0  0
   18.5667   17.3546   11.6121 C   0  0  0  0  0  0  0  0  0  0  0  0
   -2.5340   -3.7194    8.6983 C   0  0  0  0  0  0  0  0  0  0  0  0
   -2.5340   17.3666    8.6983 C   0  0  0  0  0  0  0  0  0  0  0  0
   18.5520   -3.7194    8.6983 C   0  0  0  0  0  0  0  0  0  0  0  0
   18.5520   17.3666    8.6983 C   0  0  0  0  0  0  0  0  0  0  0  0
   -2.5324   -3.7194    7.3250 C   0  0  0  0  0  0  0  0  0  0  0  0
   -2.5324   17.3666    7.3250 C   0  0  0  0  0  0  0  0  0  0  0  0
   18.5536   -3.7194    7.3250 C   0  0  0  0  0  0  0  0  0  0  0  0
   18.5536   17.3666    7.3250 C   0  0  0  0  0  0  0  0  0  0  0  0
   -2.5137   -1.3317    4.4130 C   0  0  0  0  0  0  0  0  0  0  0  0
   -2.5137   -1.3317   25.4990 C   0  0  0  0  0  0  0  0  0  0  0  0
   -2.5137   19.7543    4.4130 C   0  0  0  0  0  0  0  0  0  0  0  0
   -2.5137   19.7543   25.4990 C   0  0  0  0  0  0  0  0  0  0  0  0
   18.5723   -1.3317    4.4130 C   0  0  0  0  0  0  0  0  0  0  0  0
   18.5723   -1.3317   25.4990 C   0  0  0  0  0  0  0  0  0  0  0  0
   18.5723   19.7543    4.4130 C   0  0  0  0  0  0  0  0  0  0  0  0
   18.5723   19.7543   25.4990 C   0  0  0  0  0  0  0  0  0  0  0  0
   -2.4882   -1.3270    3.0358 C   0  0  0  0  0  0  0  0  0  0  0  0
   -2.4882   -1.3270   24.1218 C   0  0  0  0  0  0  0  0  0  0  0  0
   -2.4882   19.7590    3.0358 C   0  0  0  0  0  0  0  0  0  0  0  0
   -2.4882   19.7590   24.1218 C   0  0  0  0  0  0  0  0  0  0  0  0
   18.5978   -1.3270    3.0358 C   0  0  0  0  0  0  0  0  0  0  0  0
   18.5978   -1.3270   24.1218 C   0  0  0  0  0  0  0  0  0  0  0  0
   18.5978   19.7590    3.0358 C   0  0  0  0  0  0  0  0  0  0  0  0
   18.5978   19.7590   24.1218 C   0  0  0  0  0  0  0  0  0  0  0  0
   10.5430   10.5404   10.5447 O   0  0  0  0  0  0  0  0  0  0  0  0
   13.3823    9.6015    9.9474 O   0  0  0  0  0  0  0  0  0  0  0  0
   13.3827   11.4843   11.1424 O   0  0  0  0  0  0  0  0  0  0  0  0
    7.7064   11.4824    9.9495 O   0  0  0  0  0  0  0  0  0  0  0  0
    7.7023    9.5973   11.1412 O   0  0  0  0  0  0  0  0  0  0  0  0
    9.7794   13.3834    9.7301 O   0  0  0  0  0  0  0  0  0  0  0  0
   11.3057   13.3846   11.3632 O   0  0  0  0  0  0  0  0  0  0  0  0
   11.3067    7.7016    9.7297 O   0  0  0  0  0  0  0  0  0  0  0  0
    9.7819    7.6991   11.3652 O   0  0  0  0  0  0  0  0  0  0  0  0
    9.6973    9.8124   13.3583 O   0  0  0  0  0  0  0  0  0  0  0  0
   11.3859   11.2710   13.3557 O   0  0  0  0  0  0  0  0  0  0  0  0
    9.7026   11.2739    7.7326 O   0  0  0  0  0  0  0  0  0  0  0  0
   11.3824    9.8062    7.7298 O   0  0  0  0  0  0  0  0  0  0  0  0
   -2.5303   -2.5278   -2.5319 O   0  0  0  0  0  0  0  0  0  0  0  0
   -2.5303   -2.5278   18.5541 O   0  0  0  0  0  0  0  0  0  0  0  0
   -2.5303   18.5582   -2.5319 O   0  0  0  0  0  0  0  0  0  0  0  0
   -2.5303   18.5582   18.5541 O   0  0  0  0  0  0  0  0  0  0  0  0
   18.5557   -2.5278   -2.5319 O   0  0  0  0  0  0  0  0  0  0  0  0
   18.5557   -2.5278   18.5541 O   0  0  0  0  0  0  0  0  0  0  0  0
   18.5557   18.5582   -2.5319 O   0  0  0  0  0  0  0  0  0  0  0  0
   18.5557   18.5582   18.5541 O   0  0  0  0  0  0  0  0  0  0  0  0
    0.3083   -3.4689   -3.1305 O   0  0  0  0  0  0  0  0  0  0  0  0
    0.3083   -3.4689   17.9555 O   0  0  0  0  0  0  0  0  0  0  0  0
    0.3083   17.6171   -3.1305 O   0  0  0  0  0  0  0  0  0  0  0  0
    0.3083   17.6171   17.9555 O   0  0  0  0  0  0  0  0  0  0  0  0
   21.3943   -3.4689   -3.1305 O   0  0  0  0  0  0  0  0  0  0  0  0
   21.3943   -3.4689   17.9555 O   0  0  0  0  0  0  0  0  0  0  0  0
   21.3943   17.6171   -3.1305 O   0  0  0  0  0  0  0  0  0  0  0  0
   21.3943   17.6171   17.9555 O   0  0  0  0  0  0  0  0  0  0  0  0
    0.3082   -1.5856   -1.9361 O   0  0  0  0  0  0  0  0  0  0  0  0
    0.3082   -1.5856   19.1499 O   0  0  0  0  0  0  0  0  0  0  0  0
    0.3082   19.5004   -1.9361 O   0  0  0  0  0  0  0  0  0  0  0  0
    0.3082   19.5004   19.1499 O   0  0  0  0  0  0  0  0  0  0  0  0
   21.3942   -1.5856   -1.9361 O   0  0  0  0  0  0  0  0  0  0  0  0
   21.3942   -1.5856   19.1499 O   0  0  0  0  0  0  0  0  0  0  0  0
   21.3942   19.5004   -1.9361 O   0  0  0  0  0  0  0  0  0  0  0  0
   21.3942   19.5004   19.1499 O   0  0  0  0  0  0  0  0  0  0  0  0
   15.7148   -1.5876   -3.1289 O   0  0  0  0  0  0  0  0  0  0  0  0
   15.7148   -1.5876   17.9571 O   0  0  0  0  0  0  0  0  0  0  0  0
   15.7148   19.4984   -3.1289 O   0  0  0  0  0  0  0  0  0  0  0  0
   15.7148   19.4984   17.9571 O   0  0  0  0  0  0  0  0  0  0  0  0
   15.7175   -3.4697   -1.9328 O   0  0  0  0  0  0  0  0  0  0  0  0
   15.7175   -3.4697   19.1532 O   0  0  0  0  0  0  0  0  0  0  0  0
   15.7175   17.6163   -1.9328 O   0  0  0  0  0  0  0  0  0  0  0  0
   15.7175   17.6163   19.1532 O   0  0  0  0  0  0  0  0  0  0  0  0
   -3.2921    0.3128   -3.3510 O   0  0  0  0  0  0  0  0  0  0  0  0
   -3.2921    0.3128   17.7350 O   0  0  0  0  0  0  0  0  0  0  0  0
   -3.2921   21.3988   -3.3510 O   0  0  0  0  0  0  0  0  0  0  0  0
   -3.2921   21.3988   17.7350 O   0  0  0  0  0  0  0  0  0  0  0  0
   17.7939    0.3128   -3.3510 O   0  0  0  0  0  0  0  0  0  0  0  0
   17.7939    0.3128   17.7350 O   0  0  0  0  0  0  0  0  0  0  0  0
   17.7939   21.3988   -3.3510 O   0  0  0  0  0  0  0  0  0  0  0  0
   17.7939   21.3988   17.7350 O   0  0  0  0  0  0  0  0  0  0  0  0
   -1.7669    0.3119   -1.7158 O   0  0  0  0  0  0  0  0  0  0  0  0
   -1.7669    0.3119   19.3702 O   0  0  0  0  0  0  0  0  0  0  0  0
   -1.7669   21.3979   -1.7158 O   0  0  0  0  0  0  0  0  0  0  0  0
   -1.7669   21.3979   19.3702 O   0  0  0  0  0  0  0  0  0  0  0  0
   19.3191    0.3119   -1.7158 O   0  0  0  0  0  0  0  0  0  0  0  0
   19.3191    0.3119   19.3702 O   0  0  0  0  0  0  0  0  0  0  0  0
   19.3191   21.3979   -1.7158 O   0  0  0  0  0  0  0  0  0  0  0  0
   19.3191   21.3979   19.3702 O   0  0  0  0  0  0  0  0  0  0  0  0
   -1.7660   15.7129   -3.3490 O   0  0  0  0  0  0  0  0  0  0  0  0
   -1.7660   15.7129   17.7370 O   0  0  0  0  0  0  0  0  0  0  0  0
   19.3200   15.7129   -3.3490 O   0  0  0  0  0  0  0  0  0  0  0  0
   19.3200   15.7129   17.7370 O   0  0  0  0  0  0  0  0  0  0  0  0
   -3.2948   15.7154   -1.7182 O   0  0  0  0  0  0  0  0  0  0  0  0
   -3.2948   15.7154   19.3678 O   0  0  0  0  0  0  0  0  0  0  0  0
   17.7912   15.7154   -1.7182 O   0  0  0  0  0  0  0  0  0  0  0  0
   17.7912   15.7154   19.3678 O   0  0  0  0  0  0  0  0  0  0  0  0
   -3.3677   -3.2622    0.2799 O   0  0  0  0  0  0  0  0  0  0  0  0
   -3.3677   -3.2622   21.3659 O   0  0  0  0  0  0  0  0  0  0  0  0
   -3.3677   17.8238    0.2799 O   0  0  0  0  0  0  0  0  0  0  0  0
   -3.3677   17.8238   21.3659 O   0  0  0  0  0  0  0  0  0  0  0  0
   17.7183   -3.2622    0.2799 O   0  0  0  0  0  0  0  0  0  0  0  0
   17.7183   -3.2622   21.3659 O   0  0  0  0  0  0  0  0  0  0  0  0
   17.7183   17.8238    0.2799 O   0  0  0  0  0  0  0  0  0  0  0  0
   17.7183   17.8238   21.3659 O   0  0  0  0  0  0  0  0  0  0  0  0
   -1.6889   -1.7931    0.2828 O   0  0  0  0  0  0  0  0  0  0  0  0
   -1.6889   -1.7931   21.3688 O   0  0  0  0  0  0  0  0  0  0  0  0
   -1.6889   19.2929    0.2828 O   0  0  0  0  0  0  0  0  0  0  0  0
   -1.6889   19.2929   21.3688 O   0  0  0  0  0  0  0  0  0  0  0  0
   19.3971   -1.7931    0.2828 O   0  0  0  0  0  0  0  0  0  0  0  0
   19.3971   -1.7931   21.3688 O   0  0  0  0  0  0  0  0  0  0  0  0
   19.3971   19.2929    0.2828 O   0  0  0  0  0  0  0  0  0  0  0  0
   19.3971   19.2929   21.3688 O   0  0  0  0  0  0  0  0  0  0  0  0
   -3.3730   -1.7970   15.7403 O   0  0  0  0  0  0  0  0  0  0  0  0
   -3.3730   19.2890   15.7403 O   0  0  0  0  0  0  0  0  0  0  0  0
   17.7130   -1.7970   15.7403 O   0  0  0  0  0  0  0  0  0  0  0  0
   17.7130   19.2890   15.7403 O   0  0  0  0  0  0  0  0  0  0  0  0
   -1.6876   -3.2593   15.7428 O   0  0  0  0  0  0  0  0  0  0  0  0
   -1.6876   17.8267   15.7428 O   0  0  0  0  0  0  0  0  0  0  0  0
   19.3984   -3.2593   15.7428 O   0  0  0  0  0  0  0  0  0  0  0  0
   19.3984   17.8267   15.7428 O   0  0  0  0  0  0  0  0  0  0  0  0
  1631  1  0  0  0  0
  1632  1  0  0  0  0
  1638  1  0  0  0  0
  1643  1  0  0  0  0
  2631  1  0  0  0  0
  2634  1  0  0  0  0
  2636  1  0  0  0  0
  2642  1  0  0  0  0
  3631  1  0  0  0  0
  3635  1  0  0  0  0
  3639  1  0  0  0  0
  3640  1  0  0  0  0
  4631  1  0  0  0  0
  4633  1  0  0  0  0
  4637  1  0  0  0  0
  4641  1  0  0  0  0
  5644  1  0  0  0  0
  5652  1  0  0  0  0
  6645  1  0  0  0  0
  6653  1  0  0  0  0
  6720  1  0  0  0  0
  7646  1  0  0  0  0
  7654  1  0  0  0  0
  7692  1  0  0  0  0
  8647  1  0  0  0  0
  8655  1  0  0  0  0
  8693  1  0  0  0  0
  8721  1  0  0  0  0
  9648  1  0  0  0  0
  9656  1  0  0  0  0
 10649  1  0  0  0  0
 10657  1  0  0  0  0
 10722  1  0  0  0  0
 11650  1  0  0  0  0
 11658  1  0  0  0  0
 11694  1  0  0  0  0
 12651  1  0  0  0  0
 12659  1  0  0  0  0
 12695  1  0  0  0  0
 12723  1  0  0  0  0
 13644  1  0  0  0  0
 13676  1  0  0  0  0
 14645  1  0  0  0  0
 14677  1  0  0  0  0
 14716  1  0  0  0  0
 15646  1  0  0  0  0
 15678  1  0  0  0  0
 16647  1  0  0  0  0
 16679  1  0  0  0  0
 16717  1  0  0  0  0
 17648  1  0  0  0  0
 17668  1  0  0  0  0
 17680  1  0  0  0  0
 18649  1  0  0  0  0
 18669  1  0  0  0  0
 18681  1  0  0  0  0
 18718  1  0  0  0  0
 19650  1  0  0  0  0
 19670  1  0  0  0  0
 19682  1  0  0  0  0
 20651  1  0  0  0  0
 20671  1  0  0  0  0
 20683  1  0  0  0  0
 20719  1  0  0  0  0
 21644  1  0  0  0  0
 21700  1  0  0  0  0
 22645  1  0  0  0  0
 22701  1  0  0  0  0
 23646  1  0  0  0  0
 23696  1  0  0  0  0
 23702  1  0  0  0  0
 24647  1  0  0  0  0
 24697  1  0  0  0  0
 24703  1  0  0  0  0
 25648  1  0  0  0  0
 25672  1  0  0  0  0
 25704  1  0  0  0  0
 26649  1  0  0  0  0
 26673  1  0  0  0  0
 26705  1  0  0  0  0
 27650  1  0  0  0  0
 27674  1  0  0  0  0
 27698  1  0  0  0  0
 27706  1  0  0  0  0
 28651  1  0  0  0  0
 28675  1  0  0  0  0
 28699  1  0  0  0  0
 28707  1  0  0  0  0
 29644  1  0  0  0  0
 29660  1  0  0  0  0
 29684  1  0  0  0  0
 29708  1  0  0  0  0
 30645  1  0  0  0  0
 30661  1  0  0  0  0
 30685  1  0  0  0  0
 30709  1  0  0  0  0
 31646  1  0  0  0  0
 31662  1  0  0  0  0
 31686  1  0  0  0  0
 31710  1  0  0  0  0
 32647  1  0  0  0  0
 32663  1  0  0  0  0
 32687  1  0  0  0  0
 32711  1  0  0  0  0
 33648  1  0  0  0  0
 33664  1  0  0  0  0
 33688  1  0  0  0  0
 33712  1  0  0  0  0
 34649  1  0  0  0  0
 34665  1  0  0  0  0
 34689  1  0  0  0  0
 34713  1  0  0  0  0
 35650  1  0  0  0  0
 35666  1  0  0  0  0
 35690  1  0  0  0  0
 35714  1  0  0  0  0
 36651  1  0  0  0  0
 36667  1  0  0  0  0
 36691  1  0  0  0  0
 36715  1  0  0  0  0
 37225  1  0  0  0  0
 38226  1  0  0  0  0
 39227  1  0  0  0  0
 40232  1  0  0  0  0
 41233  1  0  0  0  0
 42234  1  0  0  0  0
 43235  1  0  0  0  0
 44240  1  0  0  0  0
 45241  1  0  0  0  0
 46242  1  0  0  0  0
 47245  1  0  0  0  0
 48246  1  0  0  0  0
 49247  1  0  0  0  0
 50248  1  0  0  0  0
 51249  1  0  0  0  0
 52250  1  0  0  0  0
 53251  1  0  0  0  0
 54252  1  0  0  0  0
 55253  1  0  0  0  0
 56254  1  0  0  0  0
 57257  1  0  0  0  0
 58258  1  0  0  0  0
 59259  1  0  0  0  0
 60264  1  0  0  0  0
 61265  1  0  0  0  0
 62266  1  0  0  0  0
 63267  1  0  0  0  0
 64272  1  0  0  0  0
 65273  1  0  0  0  0
 66274  1  0  0  0  0
 67277  1  0  0  0  0
 68278  1  0  0  0  0
 69279  1  0  0  0  0
 70280  1  0  0  0  0
 71281  1  0  0  0  0
 72282  1  0  0  0  0
 73283  1  0  0  0  0
 74284  1  0  0  0  0
 75285  1  0  0  0  0
 76286  1  0  0  0  0
 77289  1  0  0  0  0
 78290  1  0  0  0  0
 79291  1  0  0  0  0
 80296  1  0  0  0  0
 81297  1  0  0  0  0
 82298  1  0  0  0  0
 83299  1  0  0  0  0
 84304  1  0  0  0  0
 85305  1  0  0  0  0
 86306  1  0  0  0  0
 87309  1  0  0  0  0
 88310  1  0  0  0  0
 89311  1  0  0  0  0
 90312  1  0  0  0  0
 91313  1  0  0  0  0
 92314  1  0  0  0  0
 93315  1  0  0  0  0
 94316  1  0  0  0  0
 95317  1  0  0  0  0
 96318  1  0  0  0  0
 97335  1  0  0  0  0
 98336  1  0  0  0  0
 99337  1  0  0  0  0
100338  1  0  0  0  0
101339  1  0  0  0  0
102340  1  0  0  0  0
103341  1  0  0  0  0
104342  1  0  0  0  0
105343  1  0  0  0  0
106344  1  0  0  0  0
107345  1  0  0  0  0
108346  1  0  0  0  0
109361  1  0  0  0  0
110362  1  0  0  0  0
111365  1  0  0  0  0
112366  1  0  0  0  0
113377  1  0  0  0  0
114378  1  0  0  0  0
115381  1  0  0  0  0
116382  1  0  0  0  0
117391  1  0  0  0  0
118392  1  0  0  0  0
119393  1  0  0  0  0
120394  1  0  0  0  0
121395  1  0  0  0  0
122396  1  0  0  0  0
123397  1  0  0  0  0
124398  1  0  0  0  0
125399  1  0  0  0  0
126400  1  0  0  0  0
127401  1  0  0  0  0
128402  1  0  0  0  0
129403  1  0  0  0  0
130404  1  0  0  0  0
131405  1  0  0  0  0
132406  1  0  0  0  0
133409  1  0  0  0  0
134410  1  0  0  0  0
135417  1  0  0  0  0
136418  1  0  0  0  0
137421  1  0  0  0  0
138422  1  0  0  0  0
139443  1  0  0  0  0
140444  1  0  0  0  0
141445  1  0  0  0  0
142446  1  0  0  0  0
143451  1  0  0  0  0
144452  1  0  0  0  0
145463  1  0  0  0  0
146464  1  0  0  0  0
147465  1  0  0  0  0
148466  1  0  0  0  0
149467  1  0  0  0  0
150468  1  0  0  0  0
151469  1  0  0  0  0
152470  1  0  0  0  0
153479  1  0  0  0  0
154480  1  0  0  0  0
155481  1  0  0  0  0
156482  1  0  0  0  0
157483  1  0  0  0  0
158484  1  0  0  0  0
159485  1  0  0  0  0
160486  1  0  0  0  0
161497  1  0  0  0  0
162498  1  0  0  0  0
163501  1  0  0  0  0
164502  1  0  0  0  0
165505  1  0  0  0  0
166506  1  0  0  0  0
167509  1  0  0  0  0
168510  1  0  0  0  0
169511  1  0  0  0  0
170512  1  0  0  0  0
171515  1  0  0  0  0
172516  1  0  0  0  0
173519  1  0  0  0  0
174520  1  0  0  0  0
175521  1  0  0  0  0
176522  1  0  0  0  0
177523  1  0  0  0  0
178524  1  0  0  0  0
179525  1  0  0  0  0
180526  1  0  0  0  0
181545  1  0  0  0  0
182546  1  0  0  0  0
183549  1  0  0  0  0
184550  1  0  0  0  0
185553  1  0  0  0  0
186557  1  0  0  0  0
187567  1  0  0  0  0
188568  1  0  0  0  0
189569  1  0  0  0  0
190570  1  0  0  0  0
191571  1  0  0  0  0
192572  1  0  0  0  0
193573  1  0  0  0  0
194574  1  0  0  0  0
195583  1  0  0  0  0
196584  1  0  0  0  0
197585  1  0  0  0  0
198586  1  0  0  0  0
199587  1  0  0  0  0
200588  1  0  0  0  0
201589  1  0  0  0  0
202590  1  0  0  0  0
203600  1  0  0  0  0
204602  1  0  0  0  0
205604  1  0  0  0  0
206606  1  0  0  0  0
207608  1  0  0  0  0
208610  1  0  0  0  0
209612  1  0  0  0  0
210614  1  0  0  0  0
211615  1  0  0  0  0
212617  1  0  0  0  0
213619  1  0  0  0  0
214621  1  0  0  0  0
215623  1  0  0  0  0
216624  1  0  0  0  0
217625  1  0  0  0  0
218626  1  0  0  0  0
219627  1  0  0  0  0
220628  1  0  0  0  0
221629  1  0  0  0  0
222630  1  0  0  0  0
223224  1  0  0  0  0
223632  1  0  0  0  0
223633  1  0  0  0  0
224225  1  0  0  0  0
224254  1  0  0  0  0
225227  1  0  0  0  0
226228  1  0  0  0  0
227229  1  0  0  0  0
228230  1  0  0  0  0
228252  1  0  0  0  0
229231  1  0  0  0  0
229253  1  0  0  0  0
230232  1  0  0  0  0
230250  1  0  0  0  0
231233  1  0  0  0  0
231251  1  0  0  0  0
232234  1  0  0  0  0
233235  1  0  0  0  0
234236  1  0  0  0  0
235237  1  0  0  0  0
236238  1  0  0  0  0
236248  1  0  0  0  0
237239  1  0  0  0  0
237249  1  0  0  0  0
238240  1  0  0  0  0
238246  1  0  0  0  0
239241  1  0  0  0  0
239247  1  0  0  0  0
240242  1  0  0  0  0
242243  1  0  0  0  0
243244  1  0  0  0  0
243245  1  0  0  0  0
244634  1  0  0  0  0
244635  1  0  0  0  0
245246  1  0  0  0  0
248250  1  0  0  0  0
249251  1  0  0  0  0
253254  1  0  0  0  0
255256  1  0  0  0  0
255636  1  0  0  0  0
255637  1  0  0  0  0
256257  1  0  0  0  0
256286  1  0  0  0  0
257259  1  0  0  0  0
258260  1  0  0  0  0
259261  1  0  0  0  0
260262  1  0  0  0  0
260284  1  0  0  0  0
261263  1  0  0  0  0
261285  1  0  0  0  0
262264  1  0  0  0  0
262282  1  0  0  0  0
263265  1  0  0  0  0
263283  1  0  0  0  0
264266  1  0  0  0  0
265267  1  0  0  0  0
266268  1  0  0  0  0
267269  1  0  0  0  0
268270  1  0  0  0  0
268280  1  0  0  0  0
269271  1  0  0  0  0
269281  1  0  0  0  0
270272  1  0  0  0  0
270278  1  0  0  0  0
271273  1  0  0  0  0
271279  1  0  0  0  0
272274  1  0  0  0  0
274275  1  0  0  0  0
275276  1  0  0  0  0
275277  1  0  0  0  0
276638  1  0  0  0  0
276639  1  0  0  0  0
277278  1  0  0  0  0
280282  1  0  0  0  0
281283  1  0  0  0  0
285286  1  0  0  0  0
287288  1  0  0  0  0
287640  1  0  0  0  0
287641  1  0  0  0  0
288289  1  0  0  0  0
288318  1  0  0  0  0
289291  1  0  0  0  0
290292  1  0  0  0  0
291293  1  0  0  0  0
292294  1  0  0  0  0
292316  1  0  0  0  0
293295  1  0  0  0  0
293317  1  0  0  0  0
294296  1  0  0  0  0
294314  1  0  0  0  0
295297  1  0  0  0  0
295315  1  0  0  0  0
296298  1  0  0  0  0
297299  1  0  0  0  0
298300  1  0  0  0  0
299301  1  0  0  0  0
300302  1  0  0  0  0
300312  1  0  0  0  0
301303  1  0  0  0  0
301313  1  0  0  0  0
302304  1  0  0  0  0
302310  1  0  0  0  0
303305  1  0  0  0  0
303311  1  0  0  0  0
304306  1  0  0  0  0
306307  1  0  0  0  0
307308  1  0  0  0  0
307309  1  0  0  0  0
308642  1  0  0  0  0
308643  1  0  0  0  0
309310  1  0  0  0  0
312314  1  0  0  0  0
313315  1  0  0  0  0
317318  1  0  0  0  0
319327  1  0  0  0  0
319652  1  0  0  0  0
319660  1  0  0  0  0
320328  1  0  0  0  0
320653  1  0  0  0  0
320661  1  0  0  0  0
321329  1  0  0  0  0
321654  1  0  0  0  0
321662  1  0  0  0  0
322330  1  0  0  0  0
322655  1  0  0  0  0
322663  1  0  0  0  0
323331  1  0  0  0  0
323656  1  0  0  0  0
323664  1  0  0  0  0
324332  1  0  0  0  0
324657  1  0  0  0  0
324665  1  0  0  0  0
325333  1  0  0  0  0
325658  1  0  0  0  0
325666  1  0  0  0  0
326334  1  0  0  0  0
326659  1  0  0  0  0
326667  1  0  0  0  0
327335  1  0  0  0  0
327415  1  0  0  0  0
328336  1  0  0  0  0
328416  1  0  0  0  0
329337  1  0  0  0  0
329417  1  0  0  0  0
330338  1  0  0  0  0
330418  1  0  0  0  0
331339  1  0  0  0  0
331419  1  0  0  0  0
332340  1  0  0  0  0
332420  1  0  0  0  0
333341  1  0  0  0  0
333421  1  0  0  0  0
334342  1  0  0  0  0
334422  1  0  0  0  0
335343  1  0  0  0  0
336344  1  0  0  0  0
337345  1  0  0  0  0
338346  1  0  0  0  0
339347  1  0  0  0  0
340348  1  0  0  0  0
341349  1  0  0  0  0
342350  1  0  0  0  0
343351  1  0  0  0  0
344352  1  0  0  0  0
345353  1  0  0  0  0
346354  1  0  0  0  0
351355  1  0  0  0  0
351407  1  0  0  0  0
352356  1  0  0  0  0
352408  1  0  0  0  0
353357  1  0  0  0  0
353409  1  0  0  0  0
354358  1  0  0  0  0
354410  1  0  0  0  0
355359  1  0  0  0  0
355403  1  0  0  0  0
356360  1  0  0  0  0
356404  1  0  0  0  0
357361  1  0  0  0  0
357405  1  0  0  0  0
358362  1  0  0  0  0
358406  1  0  0  0  0
359363  1  0  0  0  0
360364  1  0  0  0  0
361365  1  0  0  0  0
362366  1  0  0  0  0
363367  1  0  0  0  0
364368  1  0  0  0  0
365369  1  0  0  0  0
366370  1  0  0  0  0
367371  1  0  0  0  0
367399  1  0  0  0  0
368372  1  0  0  0  0
368400  1  0  0  0  0
369373  1  0  0  0  0
369401  1  0  0  0  0
370374  1  0  0  0  0
370402  1  0  0  0  0
371375  1  0  0  0  0
371395  1  0  0  0  0
372376  1  0  0  0  0
372396  1  0  0  0  0
373377  1  0  0  0  0
373397  1  0  0  0  0
374378  1  0  0  0  0
374398  1  0  0  0  0
375379  1  0  0  0  0
376380  1  0  0  0  0
377381  1  0  0  0  0
378382  1  0  0  0  0
379383  1  0  0  0  0
380384  1  0  0  0  0
381385  1  0  0  0  0
382386  1  0  0  0  0
383387  1  0  0  0  0
383391  1  0  0  0  0
384388  1  0  0  0  0
384392  1  0  0  0  0
385389  1  0  0  0  0
385393  1  0  0  0  0
386390  1  0  0  0  0
386394  1  0  0  0  0
387668  1  0  0  0  0
387672  1  0  0  0  0
388669  1  0  0  0  0
388673  1  0  0  0  0
389670  1  0  0  0  0
389674  1  0  0  0  0
390671  1  0  0  0  0
390675  1  0  0  0  0
391395  1  0  0  0  0
392396  1  0  0  0  0
393397  1  0  0  0  0
394398  1  0  0  0  0
399403  1  0  0  0  0
400404  1  0  0  0  0
401405  1  0  0  0  0
402406  1  0  0  0  0
407415  1  0  0  0  0
408416  1  0  0  0  0
409417  1  0  0  0  0
410418  1  0  0  0  0
411419  1  0  0  0  0
412420  1  0  0  0  0
413421  1  0  0  0  0
414422  1  0  0  0  0
423431  1  0  0  0  0
423676  1  0  0  0  0
423684  1  0  0  0  0
424432  1  0  0  0  0
424677  1  0  0  0  0
424685  1  0  0  0  0
425433  1  0  0  0  0
425678  1  0  0  0  0
425686  1  0  0  0  0
426434  1  0  0  0  0
426679  1  0  0  0  0
426687  1  0  0  0  0
427435  1  0  0  0  0
427680  1  0  0  0  0
427688  1  0  0  0  0
428436  1  0  0  0  0
428681  1  0  0  0  0
428689  1  0  0  0  0
429437  1  0  0  0  0
429682  1  0  0  0  0
429690  1  0  0  0  0
430438  1  0  0  0  0
430683  1  0  0  0  0
430691  1  0  0  0  0
431439  1  0  0  0  0
431519  1  0  0  0  0
432440  1  0  0  0  0
432520  1  0  0  0  0
433441  1  0  0  0  0
433521  1  0  0  0  0
434442  1  0  0  0  0
434522  1  0  0  0  0
435443  1  0  0  0  0
435523  1  0  0  0  0
436444  1  0  0  0  0
436524  1  0  0  0  0
437445  1  0  0  0  0
437525  1  0  0  0  0
438446  1  0  0  0  0
438526  1  0  0  0  0
439447  1  0  0  0  0
440448  1  0  0  0  0
441449  1  0  0  0  0
442450  1  0  0  0  0
443451  1  0  0  0  0
444452  1  0  0  0  0
445453  1  0  0  0  0
446454  1  0  0  0  0
447455  1  0  0  0  0
448456  1  0  0  0  0
451457  1  0  0  0  0
452458  1  0  0  0  0
455459  1  0  0  0  0
455511  1  0  0  0  0
456460  1  0  0  0  0
456512  1  0  0  0  0
457461  1  0  0  0  0
457515  1  0  0  0  0
458462  1  0  0  0  0
458516  1  0  0  0  0
459463  1  0  0  0  0
459507  1  0  0  0  0
460464  1  0  0  0  0
460508  1  0  0  0  0
461465  1  0  0  0  0
461509  1  0  0  0  0
462466  1  0  0  0  0
462510  1  0  0  0  0
463467  1  0  0  0  0
464468  1  0  0  0  0
465469  1  0  0  0  0
466470  1  0  0  0  0
467471  1  0  0  0  0
468472  1  0  0  0  0
469473  1  0  0  0  0
470474  1  0  0  0  0
471475  1  0  0  0  0
471503  1  0  0  0  0
472476  1  0  0  0  0
472504  1  0  0  0  0
473477  1  0  0  0  0
473505  1  0  0  0  0
474478  1  0  0  0  0
474506  1  0  0  0  0
475479  1  0  0  0  0
475499  1  0  0  0  0
476480  1  0  0  0  0
476500  1  0  0  0  0
477481  1  0  0  0  0
477501  1  0  0  0  0
478482  1  0  0  0  0
478502  1  0  0  0  0
479483  1  0  0  0  0
480484  1  0  0  0  0
481485  1  0  0  0  0
482486  1  0  0  0  0
483487  1  0  0  0  0
484488  1  0  0  0  0
485489  1  0  0  0  0
486490  1  0  0  0  0
487491  1  0  0  0  0
487495  1  0  0  0  0
488492  1  0  0  0  0
488496  1  0  0  0  0
489493  1  0  0  0  0
489497  1  0  0  0  0
490494  1  0  0  0  0
490498  1  0  0  0  0
491692  1  0  0  0  0
491696  1  0  0  0  0
492693  1  0  0  0  0
492697  1  0  0  0  0
493694  1  0  0  0  0
493698  1  0  0  0  0
494695  1  0  0  0  0
494699  1  0  0  0  0
495499  1  0  0  0  0
496500  1  0  0  0  0
497501  1  0  0  0  0
498502  1  0  0  0  0
503507  1  0  0  0  0
504508  1  0  0  0  0
505509  1  0  0  0  0
506510  1  0  0  0  0
511519  1  0  0  0  0
512520  1  0  0  0  0
513521  1  0  0  0  0
514522  1  0  0  0  0
515523  1  0  0  0  0
516524  1  0  0  0  0
517525  1  0  0  0  0
518526  1  0  0  0  0
527535  1  0  0  0  0
527700  1  0  0  0  0
527708  1  0  0  0  0
528536  1  0  0  0  0
528701  1  0  0  0  0
528709  1  0  0  0  0
529537  1  0  0  0  0
529702  1  0  0  0  0
529710  1  0  0  0  0
530538  1  0  0  0  0
530703  1  0  0  0  0
530711  1  0  0  0  0
531539  1  0  0  0  0
531704  1  0  0  0  0
531712  1  0  0  0  0
532540  1  0  0  0  0
532705  1  0  0  0  0
532713  1  0  0  0  0
533541  1  0  0  0  0
533706  1  0  0  0  0
533714  1  0  0  0  0
534542  1  0  0  0  0
534707  1  0  0  0  0
534715  1  0  0  0  0
535543  1  0  0  0  0
535623  1  0  0  0  0
536544  1  0  0  0  0
536624  1  0  0  0  0
537545  1  0  0  0  0
537625  1  0  0  0  0
538546  1  0  0  0  0
538626  1  0  0  0  0
539547  1  0  0  0  0
539627  1  0  0  0  0
540548  1  0  0  0  0
540628  1  0  0  0  0
541549  1  0  0  0  0
541629  1  0  0  0  0
542550  1  0  0  0  0
542630  1  0  0  0  0
543551  1  0  0  0  0
544552  1  0  0  0  0
545553  1  0  0  0  0
546554  1  0  0  0  0
547555  1  0  0  0  0
548556  1  0  0  0  0
549557  1  0  0  0  0
550558  1  0  0  0  0
551559  1  0  0  0  0
553560  1  0  0  0  0
555561  1  0  0  0  0
557562  1  0  0  0  0
559563  1  0  0  0  0
559615  1  0  0  0  0
560564  1  0  0  0  0
560617  1  0  0  0  0
561565  1  0  0  0  0
561619  1  0  0  0  0
562566  1  0  0  0  0
562621  1  0  0  0  0
563567  1  0  0  0  0
563611  1  0  0  0  0
564568  1  0  0  0  0
564612  1  0  0  0  0
565569  1  0  0  0  0
565613  1  0  0  0  0
566570  1  0  0  0  0
566614  1  0  0  0  0
567571  1  0  0  0  0
568572  1  0  0  0  0
569573  1  0  0  0  0
570574  1  0  0  0  0
571575  1  0  0  0  0
572576  1  0  0  0  0
573577  1  0  0  0  0
574578  1  0  0  0  0
575579  1  0  0  0  0
575607  1  0  0  0  0
576580  1  0  0  0  0
576608  1  0  0  0  0
577581  1  0  0  0  0
577609  1  0  0  0  0
578582  1  0  0  0  0
578610  1  0  0  0  0
579583  1  0  0  0  0
579603  1  0  0  0  0
580584  1  0  0  0  0
580604  1  0  0  0  0
581585  1  0  0  0  0
581605  1  0  0  0  0
582586  1  0  0  0  0
582606  1  0  0  0  0
583587  1  0  0  0  0
584588  1  0  0  0  0
585589  1  0  0  0  0
586590  1  0  0  0  0
587591  1  0  0  0  0
588592  1  0  0  0  0
589593  1  0  0  0  0
590594  1  0  0  0  0
591595  1  0  0  0  0
591599  1  0  0  0  0
592596  1  0  0  0  0
592600  1  0  0  0  0
593597  1  0  0  0  0
593601  1  0  0  0  0
594598  1  0  0  0  0
594602  1  0  0  0  0
595716  1  0  0  0  0
595720  1  0  0  0  0
596717  1  0  0  0  0
596721  1  0  0  0  0
597718  1  0  0  0  0
597722  1  0  0  0  0
598719  1  0  0  0  0
598723  1  0  0  0  0
599603  1  0  0  0  0
600604  1  0  0  0  0
601605  1  0  0  0  0
602606  1  0  0  0  0
607611  1  0  0  0  0
608612  1  0  0  0  0
609613  1  0  0  0  0
610614  1  0  0  0  0
615623  1  0  0  0  0
616624  1  0  0  0  0
617625  1  0  0  0  0
618626  1  0  0  0  0
619627  1  0  0  0  0
620628  1  0  0  0  0
621629  1  0  0  0  0
622630  1  0  0  0  0
M  END
$$$$
