@<TRIPOS>MOLECULE
zn_f_btc_tbo
1752 2016 0 0 0
SMALL
NO_CHARGES

@<TRIPOS>ATOM
     1 Zn1        18.887994    -0.000000    18.887995 Zn   1 RES 0.0000
     2 Zn2        18.887994    26.343000    18.887995 Zn   1 RES 0.0000
     3 Zn3        -5.716496    13.171500     7.455006 Zn   1 RES 0.0000
     4 Zn4        20.626504    13.171500     7.455006 Zn   1 RES 0.0000
     5 Zn5        -5.716497    -0.000000     5.716497 Zn   1 RES 0.0000
     6 Zn6        -5.716497    -0.000000    32.059497 Zn   1 RES 0.0000
     7 Zn7        -5.716497    26.343000     5.716497 Zn   1 RES 0.0000
     8 Zn8        -5.716497    26.343000    32.059497 Zn   1 RES 0.0000
     9 Zn9        20.626503    -0.000000     5.716497 Zn   1 RES 0.0000
    10 Zn10       20.626503    -0.000000    32.059497 Zn   1 RES 0.0000
    11 Zn11       20.626503    26.343000     5.716497 Zn   1 RES 0.0000
    12 Zn12       20.626503    26.343000    32.059497 Zn   1 RES 0.0000
    13 Zn13       18.887993    -0.000000     7.455007 Zn   1 RES 0.0000
    14 Zn14       18.887993    26.343000     7.455007 Zn   1 RES 0.0000
    15 Zn15       13.173842    18.889255     5.719722 Zn   1 RES 0.0000
    16 Zn16       13.173842    18.889255    32.062722 Zn   1 RES 0.0000
    17 Zn17        0.002342     7.453745     7.451780 Zn   1 RES 0.0000
    18 Zn18       26.345342     7.453745     7.451780 Zn   1 RES 0.0000
    19 Zn19       -0.002343     5.717754    -5.719720 Zn   1 RES 0.0000
    20 Zn20       -0.002343     5.717754    20.623280 Zn   1 RES 0.0000
    21 Zn21       -0.002343    32.060754    -5.719720 Zn   1 RES 0.0000
    22 Zn22       -0.002343    32.060754    20.623280 Zn   1 RES 0.0000
    23 Zn23       26.340657     5.717754    -5.719720 Zn   1 RES 0.0000
    24 Zn24       26.340657     5.717754    20.623280 Zn   1 RES 0.0000
    25 Zn25       26.340657    32.060754    -5.719720 Zn   1 RES 0.0000
    26 Zn26       26.340657    32.060754    20.623280 Zn   1 RES 0.0000
    27 Zn27       -0.002343     7.453744    18.891222 Zn   1 RES 0.0000
    28 Zn28       26.340657     7.453744    18.891222 Zn   1 RES 0.0000
    29 Zn29       18.891220    18.889254    -0.002342 Zn   1 RES 0.0000
    30 Zn30       18.891220    18.889254    26.340658 Zn   1 RES 0.0000
    31 Zn31       -5.719723     7.453744    13.169158 Zn   1 RES 0.0000
    32 Zn32       20.623277     7.453744    13.169158 Zn   1 RES 0.0000
    33 Zn33       18.891220     7.453745     0.002343 Zn   1 RES 0.0000
    34 Zn34       18.891220     7.453745    26.345343 Zn   1 RES 0.0000
    35 Zn35       -5.719722     5.717755     0.002343 Zn   1 RES 0.0000
    36 Zn36       -5.719722     5.717755    26.345343 Zn   1 RES 0.0000
    37 Zn37       -5.719722    32.060755     0.002343 Zn   1 RES 0.0000
    38 Zn38       -5.719722    32.060755    26.345343 Zn   1 RES 0.0000
    39 Zn39       20.623278     5.717755     0.002343 Zn   1 RES 0.0000
    40 Zn40       20.623278     5.717755    26.345343 Zn   1 RES 0.0000
    41 Zn41       20.623278    32.060755     0.002343 Zn   1 RES 0.0000
    42 Zn42       20.623278    32.060755    26.345343 Zn   1 RES 0.0000
    43 Zn43       18.887994    13.171500     5.716495 Zn   1 RES 0.0000
    44 Zn44       18.887994    13.171500    32.059495 Zn   1 RES 0.0000
    45 Zn45       -5.716496    -0.000000    -5.716494 Zn   1 RES 0.0000
    46 Zn46       -5.716496    -0.000000    20.626506 Zn   1 RES 0.0000
    47 Zn47       -5.716496    26.343000    -5.716494 Zn   1 RES 0.0000
    48 Zn48       -5.716496    26.343000    20.626506 Zn   1 RES 0.0000
    49 Zn49       20.626504    -0.000000    -5.716494 Zn   1 RES 0.0000
    50 Zn50       20.626504    -0.000000    20.626506 Zn   1 RES 0.0000
    51 Zn51       20.626504    26.343000    -5.716494 Zn   1 RES 0.0000
    52 Zn52       20.626504    26.343000    20.626506 Zn   1 RES 0.0000
    53 Zn53       -5.716497    13.171500    18.887997 Zn   1 RES 0.0000
    54 Zn54       20.626503    13.171500    18.887997 Zn   1 RES 0.0000
    55 Zn55       18.887993    13.171500    -5.716493 Zn   1 RES 0.0000
    56 Zn56       18.887993    13.171500    20.626507 Zn   1 RES 0.0000
    57 Zn57       13.173842     5.717755    18.891222 Zn   1 RES 0.0000
    58 Zn58       13.173842    32.060755    18.891222 Zn   1 RES 0.0000
    59 Zn59        0.002342    -5.717755    -5.719720 Zn   1 RES 0.0000
    60 Zn60        0.002342    -5.717755    20.623280 Zn   1 RES 0.0000
    61 Zn61        0.002342    20.625245    -5.719720 Zn   1 RES 0.0000
    62 Zn62        0.002342    20.625245    20.623280 Zn   1 RES 0.0000
    63 Zn63       26.345342    -5.717755    -5.719720 Zn   1 RES 0.0000
    64 Zn64       26.345342    -5.717755    20.623280 Zn   1 RES 0.0000
    65 Zn65       26.345342    20.625245    -5.719720 Zn   1 RES 0.0000
    66 Zn66       26.345342    20.625245    20.623280 Zn   1 RES 0.0000
    67 Zn67       -0.002343    18.889254     7.451780 Zn   1 RES 0.0000
    68 Zn68       26.340657    18.889254     7.451780 Zn   1 RES 0.0000
    69 Zn69       -0.002343    -5.717756     5.719722 Zn   1 RES 0.0000
    70 Zn70       -0.002343    -5.717756    32.062722 Zn   1 RES 0.0000
    71 Zn71       -0.002343    20.625244     5.719722 Zn   1 RES 0.0000
    72 Zn72       -0.002343    20.625244    32.062722 Zn   1 RES 0.0000
    73 Zn73       26.340657    -5.717756     5.719722 Zn   1 RES 0.0000
    74 Zn74       26.340657    -5.717756    32.062722 Zn   1 RES 0.0000
    75 Zn75       26.340657    20.625244     5.719722 Zn   1 RES 0.0000
    76 Zn76       26.340657    20.625244    32.062722 Zn   1 RES 0.0000
    77 Zn77       18.891220     5.717754    13.169158 Zn   1 RES 0.0000
    78 Zn78       18.891220    32.060754    13.169158 Zn   1 RES 0.0000
    79 Zn79       -5.719723    -5.717756    -0.002342 Zn   1 RES 0.0000
    80 Zn80       -5.719723    -5.717756    26.340658 Zn   1 RES 0.0000
    81 Zn81       -5.719723    20.625244    -0.002342 Zn   1 RES 0.0000
    82 Zn82       -5.719723    20.625244    26.340658 Zn   1 RES 0.0000
    83 Zn83       20.623277    -5.717756    -0.002342 Zn   1 RES 0.0000
    84 Zn84       20.623277    -5.717756    26.340658 Zn   1 RES 0.0000
    85 Zn85       20.623277    20.625244    -0.002342 Zn   1 RES 0.0000
    86 Zn86       20.623277    20.625244    26.340658 Zn   1 RES 0.0000
    87 Zn87       18.891220    -5.717755    13.173843 Zn   1 RES 0.0000
    88 Zn88       18.891220    20.625245    13.173843 Zn   1 RES 0.0000
    89 Zn89       -5.719722    18.889255    13.173843 Zn   1 RES 0.0000
    90 Zn90       20.623278    18.889255    13.173843 Zn   1 RES 0.0000
    91 Zn91        5.716494    -0.000000     5.716495 Zn   1 RES 0.0000
    92 Zn92        5.716494    -0.000000    32.059495 Zn   1 RES 0.0000
    93 Zn93        5.716494    26.343000     5.716495 Zn   1 RES 0.0000
    94 Zn94        5.716494    26.343000    32.059495 Zn   1 RES 0.0000
    95 Zn95       32.059494    -0.000000     5.716495 Zn   1 RES 0.0000
    96 Zn96       32.059494    -0.000000    32.059495 Zn   1 RES 0.0000
    97 Zn97       32.059494    26.343000     5.716495 Zn   1 RES 0.0000
    98 Zn98       32.059494    26.343000    32.059495 Zn   1 RES 0.0000
    99 Zn99        7.455004    13.171500    -5.716494 Zn   1 RES 0.0000
   100 Zn100       7.455004    13.171500    20.626506 Zn   1 RES 0.0000
   101 Zn101       7.455003    -0.000000    18.887997 Zn   1 RES 0.0000
   102 Zn102       7.455003    26.343000    18.887997 Zn   1 RES 0.0000
   103 Zn103       5.716493    -0.000000    -5.716493 Zn   1 RES 0.0000
   104 Zn104       5.716493    -0.000000    20.626507 Zn   1 RES 0.0000
   105 Zn105       5.716493    26.343000    -5.716493 Zn   1 RES 0.0000
   106 Zn106       5.716493    26.343000    20.626507 Zn   1 RES 0.0000
   107 Zn107      32.059493    -0.000000    -5.716493 Zn   1 RES 0.0000
   108 Zn108      32.059493    -0.000000    20.626507 Zn   1 RES 0.0000
   109 Zn109      32.059493    26.343000    -5.716493 Zn   1 RES 0.0000
   110 Zn110      32.059493    26.343000    20.626507 Zn   1 RES 0.0000
   111 Zn111       0.002342    18.889255    18.891222 Zn   1 RES 0.0000
   112 Zn112      26.345342    18.889255    18.891222 Zn   1 RES 0.0000
   113 Zn113      13.173842     7.453745    -5.719720 Zn   1 RES 0.0000
   114 Zn114      13.173842     7.453745    20.623280 Zn   1 RES 0.0000
   115 Zn115      13.169157     5.717754     7.451780 Zn   1 RES 0.0000
   116 Zn116      13.169157    32.060754     7.451780 Zn   1 RES 0.0000
   117 Zn117      13.169157     7.453744     5.719722 Zn   1 RES 0.0000
   118 Zn118      13.169157     7.453744    32.062722 Zn   1 RES 0.0000
   119 Zn119       5.719720    18.889254    13.169158 Zn   1 RES 0.0000
   120 Zn120      32.062720    18.889254    13.169158 Zn   1 RES 0.0000
   121 Zn121       7.451777     7.453744    -0.002342 Zn   1 RES 0.0000
   122 Zn122       7.451777     7.453744    26.340658 Zn   1 RES 0.0000
   123 Zn123       5.719720     7.453745    13.173843 Zn   1 RES 0.0000
   124 Zn124      32.062720     7.453745    13.173843 Zn   1 RES 0.0000
   125 Zn125       7.451778     5.717755    13.173843 Zn   1 RES 0.0000
   126 Zn126       7.451778    32.060755    13.173843 Zn   1 RES 0.0000
   127 Zn127       5.716494    13.171500    18.887995 Zn   1 RES 0.0000
   128 Zn128      32.059494    13.171500    18.887995 Zn   1 RES 0.0000
   129 Zn129       7.455004    -0.000000     7.455006 Zn   1 RES 0.0000
   130 Zn130       7.455004    26.343000     7.455006 Zn   1 RES 0.0000
   131 Zn131       7.455003    13.171500     5.716497 Zn   1 RES 0.0000
   132 Zn132       7.455003    13.171500    32.059497 Zn   1 RES 0.0000
   133 Zn133       5.716493    13.171500     7.455007 Zn   1 RES 0.0000
   134 Zn134      32.059493    13.171500     7.455007 Zn   1 RES 0.0000
   135 Zn135       0.002342     5.717755     5.719722 Zn   1 RES 0.0000
   136 Zn136       0.002342     5.717755    32.062722 Zn   1 RES 0.0000
   137 Zn137       0.002342    32.060755     5.719722 Zn   1 RES 0.0000
   138 Zn138       0.002342    32.060755    32.062722 Zn   1 RES 0.0000
   139 Zn139      26.345342     5.717755     5.719722 Zn   1 RES 0.0000
   140 Zn140      26.345342     5.717755    32.062722 Zn   1 RES 0.0000
   141 Zn141      26.345342    32.060755     5.719722 Zn   1 RES 0.0000
   142 Zn142      26.345342    32.060755    32.062722 Zn   1 RES 0.0000
   143 Zn143      13.173842    -5.717755     7.451780 Zn   1 RES 0.0000
   144 Zn144      13.173842    20.625245     7.451780 Zn   1 RES 0.0000
   145 Zn145      13.169157    18.889254    -5.719720 Zn   1 RES 0.0000
   146 Zn146      13.169157    18.889254    20.623280 Zn   1 RES 0.0000
   147 Zn147      13.169157    -5.717756    18.891222 Zn   1 RES 0.0000
   148 Zn148      13.169157    20.625244    18.891222 Zn   1 RES 0.0000
   149 Zn149       5.719720     5.717754    -0.002342 Zn   1 RES 0.0000
   150 Zn150       5.719720     5.717754    26.340658 Zn   1 RES 0.0000
   151 Zn151       5.719720    32.060754    -0.002342 Zn   1 RES 0.0000
   152 Zn152       5.719720    32.060754    26.340658 Zn   1 RES 0.0000
   153 Zn153      32.062720     5.717754    -0.002342 Zn   1 RES 0.0000
   154 Zn154      32.062720     5.717754    26.340658 Zn   1 RES 0.0000
   155 Zn155      32.062720    32.060754    -0.002342 Zn   1 RES 0.0000
   156 Zn156      32.062720    32.060754    26.340658 Zn   1 RES 0.0000
   157 Zn157       7.451777    -5.717756    13.169158 Zn   1 RES 0.0000
   158 Zn158       7.451777    20.625244    13.169158 Zn   1 RES 0.0000
   159 Zn159       5.719720    -5.717755     0.002343 Zn   1 RES 0.0000
   160 Zn160       5.719720    -5.717755    26.345343 Zn   1 RES 0.0000
   161 Zn161       5.719720    20.625245     0.002343 Zn   1 RES 0.0000
   162 Zn162       5.719720    20.625245    26.345343 Zn   1 RES 0.0000
   163 Zn163      32.062720    -5.717755     0.002343 Zn   1 RES 0.0000
   164 Zn164      32.062720    -5.717755    26.345343 Zn   1 RES 0.0000
   165 Zn165      32.062720    20.625245     0.002343 Zn   1 RES 0.0000
   166 Zn166      32.062720    20.625245    26.345343 Zn   1 RES 0.0000
   167 Zn167       7.451778    18.889255     0.002343 Zn   1 RES 0.0000
   168 Zn168       7.451778    18.889255    26.345343 Zn   1 RES 0.0000
   169 H169      16.279224    20.207656     3.119032 H    1 RES 0.0000
   170 H170      16.279224    20.207656    29.462032 H    1 RES 0.0000
   171 H171      16.279225     6.135344    -3.119032 H    1 RES 0.0000
   172 H172      16.279225     6.135344    23.223968 H    1 RES 0.0000
   173 H173      -3.107724     7.036156    -3.119032 H    1 RES 0.0000
   174 H174      -3.107724     7.036156    23.223968 H    1 RES 0.0000
   175 H175      23.235276     7.036156    -3.119032 H    1 RES 0.0000
   176 H176      23.235276     7.036156    23.223968 H    1 RES 0.0000
   177 H177      -3.107724    19.306844     3.119032 H    1 RES 0.0000
   178 H178      -3.107724    19.306844    29.462032 H    1 RES 0.0000
   179 H179      23.235276    19.306844     3.119032 H    1 RES 0.0000
   180 H180      23.235276    19.306844    29.462032 H    1 RES 0.0000
   181 H181      20.208107    16.278385     3.118615 H    1 RES 0.0000
   182 H182      20.208107    16.278385    29.461615 H    1 RES 0.0000
   183 H183      19.306393    -3.106885     3.118615 H    1 RES 0.0000
   184 H184      19.306393    -3.106885    29.461615 H    1 RES 0.0000
   185 H185      19.306393    23.236115     3.118615 H    1 RES 0.0000
   186 H186      19.306393    23.236115    29.461615 H    1 RES 0.0000
   187 H187      20.208107    10.064615    -3.118615 H    1 RES 0.0000
   188 H188      20.208107    10.064615    23.224385 H    1 RES 0.0000
   189 H189      19.306393     3.106885    -3.118615 H    1 RES 0.0000
   190 H190      19.306393     3.106885    23.224385 H    1 RES 0.0000
   191 H191      19.306393    29.449885    -3.118615 H    1 RES 0.0000
   192 H192      19.306393    29.449885    23.224385 H    1 RES 0.0000
   193 H193      16.290532     6.135344     3.107724 H    1 RES 0.0000
   194 H194      16.290532     6.135344    29.450724 H    1 RES 0.0000
   195 H195      -3.119032     7.036156     3.107724 H    1 RES 0.0000
   196 H196      -3.119032     7.036156    29.450724 H    1 RES 0.0000
   197 H197      23.223968     7.036156     3.107724 H    1 RES 0.0000
   198 H198      23.223968     7.036156    29.450724 H    1 RES 0.0000
   199 H199      -3.119032    19.306844    -3.107724 H    1 RES 0.0000
   200 H200      -3.119032    19.306844    23.235276 H    1 RES 0.0000
   201 H201      23.223968    19.306844    -3.107724 H    1 RES 0.0000
   202 H202      23.223968    19.306844    23.235276 H    1 RES 0.0000
   203 H203      16.290532    20.207656    -3.107725 H    1 RES 0.0000
   204 H204      16.290532    20.207656    23.235275 H    1 RES 0.0000
   205 H205      16.290115    -3.106885    20.208107 H    1 RES 0.0000
   206 H206      16.290115    23.236115    20.208107 H    1 RES 0.0000
   207 H207      16.290115     3.106885     6.134893 H    1 RES 0.0000
   208 H208      16.290115    29.449885     6.134893 H    1 RES 0.0000
   209 H209      -3.118615    16.278385    20.208107 H    1 RES 0.0000
   210 H210      23.224385    16.278385    20.208107 H    1 RES 0.0000
   211 H211      -3.118615    10.064615     6.134893 H    1 RES 0.0000
   212 H212      23.224385    10.064615     6.134893 H    1 RES 0.0000
   213 H213      16.279224     7.036156    16.290532 H    1 RES 0.0000
   214 H214      16.279225    19.306844    10.052468 H    1 RES 0.0000
   215 H215      -3.107724    20.207656    10.052468 H    1 RES 0.0000
   216 H216      23.235276    20.207656    10.052468 H    1 RES 0.0000
   217 H217      -3.107724     6.135344    16.290532 H    1 RES 0.0000
   218 H218      23.235276     6.135344    16.290532 H    1 RES 0.0000
   219 H219      20.208107     3.106885    16.290115 H    1 RES 0.0000
   220 H220      20.208107    29.449885    16.290115 H    1 RES 0.0000
   221 H221      19.306393    10.064615    16.290115 H    1 RES 0.0000
   222 H222      20.208107    -3.106885    10.052885 H    1 RES 0.0000
   223 H223      20.208107    23.236115    10.052885 H    1 RES 0.0000
   224 H224      19.306393    16.278385    10.052885 H    1 RES 0.0000
   225 H225      16.290532    19.306844    16.279224 H    1 RES 0.0000
   226 H226      -3.119032    20.207656    16.279224 H    1 RES 0.0000
   227 H227      23.223968    20.207656    16.279224 H    1 RES 0.0000
   228 H228      -3.119032     6.135344    10.063776 H    1 RES 0.0000
   229 H229      23.223968     6.135344    10.063776 H    1 RES 0.0000
   230 H230      16.290532     7.036156    10.063775 H    1 RES 0.0000
   231 H231      16.290115    10.064615     7.036607 H    1 RES 0.0000
   232 H232      16.290115    16.278385    19.306393 H    1 RES 0.0000
   233 H233      -3.118615     3.106885     7.036607 H    1 RES 0.0000
   234 H234      -3.118615    29.449885     7.036607 H    1 RES 0.0000
   235 H235      23.224385     3.106885     7.036607 H    1 RES 0.0000
   236 H236      23.224385    29.449885     7.036607 H    1 RES 0.0000
   237 H237      -3.118615    -3.106885    19.306393 H    1 RES 0.0000
   238 H238      -3.118615    23.236115    19.306393 H    1 RES 0.0000
   239 H239      23.224385    -3.106885    19.306393 H    1 RES 0.0000
   240 H240      23.224385    23.236115    19.306393 H    1 RES 0.0000
   241 H241       3.107724    20.207656    16.290532 H    1 RES 0.0000
   242 H242      29.450724    20.207656    16.290532 H    1 RES 0.0000
   243 H243       3.107725     6.135344    10.052468 H    1 RES 0.0000
   244 H244      29.450725     6.135344    10.052468 H    1 RES 0.0000
   245 H245      10.063776     7.036156    10.052468 H    1 RES 0.0000
   246 H246      10.063776    19.306844    16.290532 H    1 RES 0.0000
   247 H247       7.036607    16.278385    16.290115 H    1 RES 0.0000
   248 H248       6.134893    -3.106885    16.290115 H    1 RES 0.0000
   249 H249       6.134893    23.236115    16.290115 H    1 RES 0.0000
   250 H250       7.036607    10.064615    10.052885 H    1 RES 0.0000
   251 H251       6.134893     3.106885    10.052885 H    1 RES 0.0000
   252 H252       6.134893    29.449885    10.052885 H    1 RES 0.0000
   253 H253       3.119032     6.135344    16.279224 H    1 RES 0.0000
   254 H254      29.462032     6.135344    16.279224 H    1 RES 0.0000
   255 H255      10.052468     7.036156    16.279224 H    1 RES 0.0000
   256 H256      10.052468    19.306844    10.063776 H    1 RES 0.0000
   257 H257       3.119032    20.207656    10.063775 H    1 RES 0.0000
   258 H258      29.462032    20.207656    10.063775 H    1 RES 0.0000
   259 H259       3.118615    -3.106885     7.036607 H    1 RES 0.0000
   260 H260       3.118615    23.236115     7.036607 H    1 RES 0.0000
   261 H261      29.461615    -3.106885     7.036607 H    1 RES 0.0000
   262 H262      29.461615    23.236115     7.036607 H    1 RES 0.0000
   263 H263       3.118615     3.106885    19.306393 H    1 RES 0.0000
   264 H264       3.118615    29.449885    19.306393 H    1 RES 0.0000
   265 H265      29.461615     3.106885    19.306393 H    1 RES 0.0000
   266 H266      29.461615    29.449885    19.306393 H    1 RES 0.0000
   267 H267      10.052885    16.278385     7.036607 H    1 RES 0.0000
   268 H268      10.052885    10.064615    19.306393 H    1 RES 0.0000
   269 H269       3.107724     7.036156     3.119032 H    1 RES 0.0000
   270 H270       3.107724     7.036156    29.462032 H    1 RES 0.0000
   271 H271      29.450724     7.036156     3.119032 H    1 RES 0.0000
   272 H272      29.450724     7.036156    29.462032 H    1 RES 0.0000
   273 H273       3.107725    19.306844    -3.119032 H    1 RES 0.0000
   274 H274       3.107725    19.306844    23.223968 H    1 RES 0.0000
   275 H275      29.450725    19.306844    -3.119032 H    1 RES 0.0000
   276 H276      29.450725    19.306844    23.223968 H    1 RES 0.0000
   277 H277      10.063776    20.207656    -3.119032 H    1 RES 0.0000
   278 H278      10.063776    20.207656    23.223968 H    1 RES 0.0000
   279 H279      10.063776     6.135344     3.119032 H    1 RES 0.0000
   280 H280      10.063776     6.135344    29.462032 H    1 RES 0.0000
   281 H281       7.036607     3.106885     3.118615 H    1 RES 0.0000
   282 H282       7.036607     3.106885    29.461615 H    1 RES 0.0000
   283 H283       7.036607    29.449885     3.118615 H    1 RES 0.0000
   284 H284       7.036607    29.449885    29.461615 H    1 RES 0.0000
   285 H285       6.134893    10.064615     3.118615 H    1 RES 0.0000
   286 H286       6.134893    10.064615    29.461615 H    1 RES 0.0000
   287 H287       7.036607    -3.106885    -3.118615 H    1 RES 0.0000
   288 H288       7.036607    -3.106885    23.224385 H    1 RES 0.0000
   289 H289       7.036607    23.236115    -3.118615 H    1 RES 0.0000
   290 H290       7.036607    23.236115    23.224385 H    1 RES 0.0000
   291 H291       6.134893    16.278385    -3.118615 H    1 RES 0.0000
   292 H292       6.134893    16.278385    23.224385 H    1 RES 0.0000
   293 H293       3.119032    19.306844     3.107724 H    1 RES 0.0000
   294 H294       3.119032    19.306844    29.450724 H    1 RES 0.0000
   295 H295      29.462032    19.306844     3.107724 H    1 RES 0.0000
   296 H296      29.462032    19.306844    29.450724 H    1 RES 0.0000
   297 H297      10.052468    20.207656     3.107724 H    1 RES 0.0000
   298 H298      10.052468    20.207656    29.450724 H    1 RES 0.0000
   299 H299      10.052468     6.135344    -3.107724 H    1 RES 0.0000
   300 H300      10.052468     6.135344    23.235276 H    1 RES 0.0000
   301 H301       3.119032     7.036156    -3.107725 H    1 RES 0.0000
   302 H302       3.119032     7.036156    23.235275 H    1 RES 0.0000
   303 H303      29.462032     7.036156    -3.107725 H    1 RES 0.0000
   304 H304      29.462032     7.036156    23.235275 H    1 RES 0.0000
   305 H305       3.118615    10.064615    20.208107 H    1 RES 0.0000
   306 H306      29.461615    10.064615    20.208107 H    1 RES 0.0000
   307 H307       3.118615    16.278385     6.134893 H    1 RES 0.0000
   308 H308      29.461615    16.278385     6.134893 H    1 RES 0.0000
   309 H309      10.052885     3.106885    20.208107 H    1 RES 0.0000
   310 H310      10.052885    29.449885    20.208107 H    1 RES 0.0000
   311 H311      10.052885    -3.106885     6.134893 H    1 RES 0.0000
   312 H312      10.052885    23.236115     6.134893 H    1 RES 0.0000
   313 C313      18.537912     1.800045    -5.358457 C    1 RES 0.0000
   314 C314      18.537912     1.800045    20.984543 C    1 RES 0.0000
   315 C315      18.537912    28.143045    -5.358457 C    1 RES 0.0000
   316 C316      18.537912    28.143045    20.984543 C    1 RES 0.0000
   317 C317      -5.366412    14.971545     5.358456 C    1 RES 0.0000
   318 C318      -5.366412    14.971545    31.701456 C    1 RES 0.0000
   319 C319      20.976588    14.971545     5.358456 C    1 RES 0.0000
   320 C320      20.976588    14.971545    31.701456 C    1 RES 0.0000
   321 C321      -5.366412    11.371455    -5.358456 C    1 RES 0.0000
   322 C322      -5.366412    11.371455    20.984544 C    1 RES 0.0000
   323 C323      20.976588    11.371455    -5.358456 C    1 RES 0.0000
   324 C324      20.976588    11.371455    20.984544 C    1 RES 0.0000
   325 C325      18.537912    -1.800045     5.358457 C    1 RES 0.0000
   326 C326      18.537912    -1.800045    31.701457 C    1 RES 0.0000
   327 C327      18.537912    24.542955     5.358457 C    1 RES 0.0000
   328 C328      18.537912    24.542955    31.701457 C    1 RES 0.0000
   329 C329      14.971927    -5.366218     5.357581 C    1 RES 0.0000
   330 C330      14.971927    -5.366218    31.700581 C    1 RES 0.0000
   331 C331      14.971927    20.976782     5.357581 C    1 RES 0.0000
   332 C332      14.971927    20.976782    31.700581 C    1 RES 0.0000
   333 C333      14.971927     5.366218    -5.357581 C    1 RES 0.0000
   334 C334      14.971927     5.366218    20.985419 C    1 RES 0.0000
   335 C335      14.971927    31.709218    -5.357581 C    1 RES 0.0000
   336 C336      14.971927    31.709218    20.985419 C    1 RES 0.0000
   337 C337      -1.800427     7.805282    -5.357581 C    1 RES 0.0000
   338 C338      -1.800427     7.805282    20.985419 C    1 RES 0.0000
   339 C339      24.542573     7.805282    -5.357581 C    1 RES 0.0000
   340 C340      24.542573     7.805282    20.985419 C    1 RES 0.0000
   341 C341      -1.800427    18.537718     5.357581 C    1 RES 0.0000
   342 C342      -1.800427    18.537718    31.700581 C    1 RES 0.0000
   343 C343      24.542573    18.537718     5.357581 C    1 RES 0.0000
   344 C344      24.542573    18.537718    31.700581 C    1 RES 0.0000
   345 C345      -5.354414    18.526728     1.815321 C    1 RES 0.0000
   346 C346      -5.354414    18.526728    28.158321 C    1 RES 0.0000
   347 C347      20.988586    18.526728     1.815321 C    1 RES 0.0000
   348 C348      20.988586    18.526728    28.158321 C    1 RES 0.0000
   349 C349      18.525914    -5.355228     1.815321 C    1 RES 0.0000
   350 C350      18.525914    -5.355228    28.158321 C    1 RES 0.0000
   351 C351      18.525914    20.987772     1.815321 C    1 RES 0.0000
   352 C352      18.525914    20.987772    28.158321 C    1 RES 0.0000
   353 C353      -5.354413     7.816272    -1.815321 C    1 RES 0.0000
   354 C354      -5.354413     7.816272    24.527679 C    1 RES 0.0000
   355 C355      20.988587     7.816272    -1.815321 C    1 RES 0.0000
   356 C356      20.988587     7.816272    24.527679 C    1 RES 0.0000
   357 C357      18.525914     5.355228    -1.815321 C    1 RES 0.0000
   358 C358      18.525914     5.355228    24.527679 C    1 RES 0.0000
   359 C359      18.525914    31.698228    -1.815321 C    1 RES 0.0000
   360 C360      18.525914    31.698228    24.527679 C    1 RES 0.0000
   361 C361      -5.358456    11.371455     5.366412 C    1 RES 0.0000
   362 C362      -5.358456    11.371455    31.709412 C    1 RES 0.0000
   363 C363      20.984544    11.371455     5.366412 C    1 RES 0.0000
   364 C364      20.984544    11.371455    31.709412 C    1 RES 0.0000
   365 C365      18.529957    -1.800045    -5.366412 C    1 RES 0.0000
   366 C366      18.529957    -1.800045    20.976588 C    1 RES 0.0000
   367 C367      18.529957    24.542955    -5.366412 C    1 RES 0.0000
   368 C368      18.529957    24.542955    20.976588 C    1 RES 0.0000
   369 C369      -5.358457    14.971545    -5.366412 C    1 RES 0.0000
   370 C370      -5.358457    14.971545    20.976588 C    1 RES 0.0000
   371 C371      20.984543    14.971545    -5.366412 C    1 RES 0.0000
   372 C372      20.984543    14.971545    20.976588 C    1 RES 0.0000
   373 C373      18.529956     1.800045     5.366412 C    1 RES 0.0000
   374 C374      18.529956     1.800045    31.709412 C    1 RES 0.0000
   375 C375      18.529956    28.143045     5.366412 C    1 RES 0.0000
   376 C376      18.529956    28.143045    31.709412 C    1 RES 0.0000
   377 C377      18.529081     5.366218     1.800427 C    1 RES 0.0000
   378 C378      18.529081     5.366218    28.143427 C    1 RES 0.0000
   379 C379      18.529081    31.709218     1.800427 C    1 RES 0.0000
   380 C380      18.529081    31.709218    28.143427 C    1 RES 0.0000
   381 C381      -5.357581     7.805282     1.800427 C    1 RES 0.0000
   382 C382      -5.357581     7.805282    28.143427 C    1 RES 0.0000
   383 C383      20.985419     7.805282     1.800427 C    1 RES 0.0000
   384 C384      20.985419     7.805282    28.143427 C    1 RES 0.0000
   385 C385      -5.357581    18.537718    -1.800427 C    1 RES 0.0000
   386 C386      -5.357581    18.537718    24.542573 C    1 RES 0.0000
   387 C387      20.985419    18.537718    -1.800427 C    1 RES 0.0000
   388 C388      20.985419    18.537718    24.542573 C    1 RES 0.0000
   389 C389      18.529081    -5.366218    -1.800427 C    1 RES 0.0000
   390 C390      18.529081    -5.366218    24.542573 C    1 RES 0.0000
   391 C391      18.529081    20.976782    -1.800427 C    1 RES 0.0000
   392 C392      18.529081    20.976782    24.542573 C    1 RES 0.0000
   393 C393      14.986821    -5.355228    -5.354414 C    1 RES 0.0000
   394 C394      14.986821    -5.355228    20.988586 C    1 RES 0.0000
   395 C395      14.986821    20.987772    -5.354414 C    1 RES 0.0000
   396 C396      14.986821    20.987772    20.988586 C    1 RES 0.0000
   397 C397      14.986821     5.355228     5.354413 C    1 RES 0.0000
   398 C398      14.986821     5.355228    31.697413 C    1 RES 0.0000
   399 C399      14.986821    31.698228     5.354413 C    1 RES 0.0000
   400 C400      14.986821    31.698228    31.697413 C    1 RES 0.0000
   401 C401      -1.815321    18.526728    -5.354414 C    1 RES 0.0000
   402 C402      -1.815321    18.526728    20.988586 C    1 RES 0.0000
   403 C403      24.527679    18.526728    -5.354414 C    1 RES 0.0000
   404 C404      24.527679    18.526728    20.988586 C    1 RES 0.0000
   405 C405      -1.815321     7.816272     5.354414 C    1 RES 0.0000
   406 C406      -1.815321     7.816272    31.697414 C    1 RES 0.0000
   407 C407      24.527679     7.816272     5.354414 C    1 RES 0.0000
   408 C408      24.527679     7.816272    31.697414 C    1 RES 0.0000
   409 C409      17.863420     2.969590    -4.687923 C    1 RES 0.0000
   410 C410      17.863420     2.969590    21.655077 C    1 RES 0.0000
   411 C411      17.863420    29.312590    -4.687923 C    1 RES 0.0000
   412 C412      17.863420    29.312590    21.655077 C    1 RES 0.0000
   413 C413      -4.691920    16.141090     4.687923 C    1 RES 0.0000
   414 C414      -4.691920    16.141090    31.030923 C    1 RES 0.0000
   415 C415      21.651080    16.141090     4.687923 C    1 RES 0.0000
   416 C416      21.651080    16.141090    31.030923 C    1 RES 0.0000
   417 C417      -4.691920    10.201910    -4.687924 C    1 RES 0.0000
   418 C418      -4.691920    10.201910    21.655076 C    1 RES 0.0000
   419 C419      21.651080    10.201910    -4.687924 C    1 RES 0.0000
   420 C420      21.651080    10.201910    21.655076 C    1 RES 0.0000
   421 C421      17.863420    -2.969590     4.687923 C    1 RES 0.0000
   422 C422      17.863420    -2.969590    31.030923 C    1 RES 0.0000
   423 C423      17.863420    23.373410     4.687923 C    1 RES 0.0000
   424 C424      17.863420    23.373410    31.030923 C    1 RES 0.0000
   425 C425      16.141208    -4.692286     4.688078 C    1 RES 0.0000
   426 C426      16.141208    -4.692286    31.031078 C    1 RES 0.0000
   427 C427      16.141208    21.650714     4.688078 C    1 RES 0.0000
   428 C428      16.141208    21.650714    31.031078 C    1 RES 0.0000
   429 C429      16.141208     4.692286    -4.688078 C    1 RES 0.0000
   430 C430      16.141208     4.692286    21.654922 C    1 RES 0.0000
   431 C431      16.141208    31.035286    -4.688078 C    1 RES 0.0000
   432 C432      16.141208    31.035286    21.654922 C    1 RES 0.0000
   433 C433      -2.969708     8.479214    -4.688078 C    1 RES 0.0000
   434 C434      -2.969708     8.479214    21.654922 C    1 RES 0.0000
   435 C435      23.373292     8.479214    -4.688078 C    1 RES 0.0000
   436 C436      23.373292     8.479214    21.654922 C    1 RES 0.0000
   437 C437      -2.969708    17.863786     4.688078 C    1 RES 0.0000
   438 C438      -2.969708    17.863786    31.031078 C    1 RES 0.0000
   439 C439      23.373292    17.863786     4.688078 C    1 RES 0.0000
   440 C440      23.373292    17.863786    31.031078 C    1 RES 0.0000
   441 C441      -4.681839    17.853615     2.985648 C    1 RES 0.0000
   442 C442      -4.681839    17.853615    29.328648 C    1 RES 0.0000
   443 C443      21.661161    17.853615     2.985648 C    1 RES 0.0000
   444 C444      21.661161    17.853615    29.328648 C    1 RES 0.0000
   445 C445      17.853339    -4.682115     2.985648 C    1 RES 0.0000
   446 C446      17.853339    -4.682115    29.328648 C    1 RES 0.0000
   447 C447      17.853339    21.660885     2.985648 C    1 RES 0.0000
   448 C448      17.853339    21.660885    29.328648 C    1 RES 0.0000
   449 C449      -4.681839     8.489385    -2.985648 C    1 RES 0.0000
   450 C450      -4.681839     8.489385    23.357352 C    1 RES 0.0000
   451 C451      21.661161     8.489385    -2.985648 C    1 RES 0.0000
   452 C452      21.661161     8.489385    23.357352 C    1 RES 0.0000
   453 C453      17.853339     4.682115    -2.985648 C    1 RES 0.0000
   454 C454      17.853339     4.682115    23.357352 C    1 RES 0.0000
   455 C455      17.853339    31.025115    -2.985648 C    1 RES 0.0000
   456 C456      17.853339    31.025115    23.357352 C    1 RES 0.0000
   457 C457      -4.687923    10.201910     4.691920 C    1 RES 0.0000
   458 C458      -4.687923    10.201910    31.034920 C    1 RES 0.0000
   459 C459      21.655077    10.201910     4.691920 C    1 RES 0.0000
   460 C460      21.655077    10.201910    31.034920 C    1 RES 0.0000
   461 C461      17.859423    -2.969590    -4.691920 C    1 RES 0.0000
   462 C462      17.859423    -2.969590    21.651080 C    1 RES 0.0000
   463 C463      17.859423    23.373410    -4.691920 C    1 RES 0.0000
   464 C464      17.859423    23.373410    21.651080 C    1 RES 0.0000
   465 C465      -4.687923    16.141090    -4.691920 C    1 RES 0.0000
   466 C466      -4.687923    16.141090    21.651080 C    1 RES 0.0000
   467 C467      21.655077    16.141090    -4.691920 C    1 RES 0.0000
   468 C468      21.655077    16.141090    21.651080 C    1 RES 0.0000
   469 C469      17.859424     2.969590     4.691920 C    1 RES 0.0000
   470 C470      17.859424     2.969590    31.034920 C    1 RES 0.0000
   471 C471      17.859424    29.312590     4.691920 C    1 RES 0.0000
   472 C472      17.859424    29.312590    31.034920 C    1 RES 0.0000
   473 C473      17.859578     4.692286     2.969708 C    1 RES 0.0000
   474 C474      17.859578     4.692286    29.312708 C    1 RES 0.0000
   475 C475      17.859578    31.035286     2.969708 C    1 RES 0.0000
   476 C476      17.859578    31.035286    29.312708 C    1 RES 0.0000
   477 C477      -4.688078     8.479214     2.969708 C    1 RES 0.0000
   478 C478      -4.688078     8.479214    29.312708 C    1 RES 0.0000
   479 C479      21.654922     8.479214     2.969708 C    1 RES 0.0000
   480 C480      21.654922     8.479214    29.312708 C    1 RES 0.0000
   481 C481      -4.688078    17.863786    -2.969708 C    1 RES 0.0000
   482 C482      -4.688078    17.863786    23.373292 C    1 RES 0.0000
   483 C483      21.654922    17.863786    -2.969708 C    1 RES 0.0000
   484 C484      21.654922    17.863786    23.373292 C    1 RES 0.0000
   485 C485      17.859578    -4.692286    -2.969708 C    1 RES 0.0000
   486 C486      17.859578    -4.692286    23.373292 C    1 RES 0.0000
   487 C487      17.859578    21.650714    -2.969708 C    1 RES 0.0000
   488 C488      17.859578    21.650714    23.373292 C    1 RES 0.0000
   489 C489      16.157148    -4.682115    -4.681839 C    1 RES 0.0000
   490 C490      16.157148    -4.682115    21.661161 C    1 RES 0.0000
   491 C491      16.157148    21.660885    -4.681839 C    1 RES 0.0000
   492 C492      16.157148    21.660885    21.661161 C    1 RES 0.0000
   493 C493      16.157148     4.682115     4.681839 C    1 RES 0.0000
   494 C494      16.157148     4.682115    31.024839 C    1 RES 0.0000
   495 C495      16.157148    31.025115     4.681839 C    1 RES 0.0000
   496 C496      16.157148    31.025115    31.024839 C    1 RES 0.0000
   497 C497      -2.985648    17.853615    -4.681839 C    1 RES 0.0000
   498 C498      -2.985648    17.853615    21.661161 C    1 RES 0.0000
   499 C499      23.357352    17.853615    -4.681839 C    1 RES 0.0000
   500 C500      23.357352    17.853615    21.661161 C    1 RES 0.0000
   501 C501      -2.985648     8.489385     4.681839 C    1 RES 0.0000
   502 C502      -2.985648     8.489385    31.024839 C    1 RES 0.0000
   503 C503      23.357352     8.489385     4.681839 C    1 RES 0.0000
   504 C504      23.357352     8.489385    31.024839 C    1 RES 0.0000
   505 C505      16.717656     3.546098    -5.246377 C    1 RES 0.0000
   506 C506      16.717656     3.546098    21.096623 C    1 RES 0.0000
   507 C507      16.717656    29.889098    -5.246377 C    1 RES 0.0000
   508 C508      16.717656    29.889098    21.096623 C    1 RES 0.0000
   509 C509      -3.546156    16.717598     5.246377 C    1 RES 0.0000
   510 C510      -3.546156    16.717598    31.589377 C    1 RES 0.0000
   511 C511      22.796844    16.717598     5.246377 C    1 RES 0.0000
   512 C512      22.796844    16.717598    31.589377 C    1 RES 0.0000
   513 C513      -3.546156     9.625402    -5.246377 C    1 RES 0.0000
   514 C514      -3.546156     9.625402    21.096623 C    1 RES 0.0000
   515 C515      22.796844     9.625402    -5.246377 C    1 RES 0.0000
   516 C516      22.796844     9.625402    21.096623 C    1 RES 0.0000
   517 C517      16.717656    -3.546098     5.246377 C    1 RES 0.0000
   518 C518      16.717656    -3.546098    31.589377 C    1 RES 0.0000
   519 C519      16.717656    22.796902     5.246377 C    1 RES 0.0000
   520 C520      16.717656    22.796902    31.589377 C    1 RES 0.0000
   521 C521      16.715804    -5.248702     3.551539 C    1 RES 0.0000
   522 C522      16.715804    -5.248702    29.894539 C    1 RES 0.0000
   523 C523      16.715804    21.094298     3.551539 C    1 RES 0.0000
   524 C524      16.715804    21.094298    29.894539 C    1 RES 0.0000
   525 C525      16.715804     5.248702    -3.551539 C    1 RES 0.0000
   526 C526      16.715804     5.248702    22.791461 C    1 RES 0.0000
   527 C527      16.715804    31.591702    -3.551539 C    1 RES 0.0000
   528 C528      16.715804    31.591702    22.791461 C    1 RES 0.0000
   529 C529      -3.544304     7.922798    -3.551540 C    1 RES 0.0000
   530 C530      -3.544304     7.922798    22.791460 C    1 RES 0.0000
   531 C531      22.798696     7.922798    -3.551540 C    1 RES 0.0000
   532 C532      22.798696     7.922798    22.791460 C    1 RES 0.0000
   533 C533      -3.544304    18.420202     3.551539 C    1 RES 0.0000
   534 C534      -3.544304    18.420202    29.894539 C    1 RES 0.0000
   535 C535      22.798696    18.420202     3.551539 C    1 RES 0.0000
   536 C536      22.798696    18.420202    29.894539 C    1 RES 0.0000
   537 C537      -5.248642    16.715771     3.551579 C    1 RES 0.0000
   538 C538      -5.248642    16.715771    29.894579 C    1 RES 0.0000
   539 C539      21.094358    16.715771     3.551579 C    1 RES 0.0000
   540 C540      21.094358    16.715771    29.894579 C    1 RES 0.0000
   541 C541      18.420142    -3.544271     3.551579 C    1 RES 0.0000
   542 C542      18.420142    -3.544271    29.894579 C    1 RES 0.0000
   543 C543      18.420142    22.798729     3.551579 C    1 RES 0.0000
   544 C544      18.420142    22.798729    29.894579 C    1 RES 0.0000
   545 C545      -5.248642     9.627229    -3.551579 C    1 RES 0.0000
   546 C546      -5.248642     9.627229    22.791421 C    1 RES 0.0000
   547 C547      21.094358     9.627229    -3.551579 C    1 RES 0.0000
   548 C548      21.094358     9.627229    22.791421 C    1 RES 0.0000
   549 C549      18.420142     3.544271    -3.551579 C    1 RES 0.0000
   550 C550      18.420142     3.544271    22.791421 C    1 RES 0.0000
   551 C551      18.420142    29.887271    -3.551579 C    1 RES 0.0000
   552 C552      18.420142    29.887271    22.791421 C    1 RES 0.0000
   553 C553      -5.246377     9.625402     3.546156 C    1 RES 0.0000
   554 C554      -5.246377     9.625402    29.889156 C    1 RES 0.0000
   555 C555      21.096623     9.625402     3.546156 C    1 RES 0.0000
   556 C556      21.096623     9.625402    29.889156 C    1 RES 0.0000
   557 C557      18.417877    -3.546098    -3.546156 C    1 RES 0.0000
   558 C558      18.417877    -3.546098    22.796844 C    1 RES 0.0000
   559 C559      18.417877    22.796902    -3.546156 C    1 RES 0.0000
   560 C560      18.417877    22.796902    22.796844 C    1 RES 0.0000
   561 C561      -5.246377    16.717598    -3.546156 C    1 RES 0.0000
   562 C562      -5.246377    16.717598    22.796844 C    1 RES 0.0000
   563 C563      21.096623    16.717598    -3.546156 C    1 RES 0.0000
   564 C564      21.096623    16.717598    22.796844 C    1 RES 0.0000
   565 C565      18.417877     3.546098     3.546156 C    1 RES 0.0000
   566 C566      18.417877     3.546098    29.889156 C    1 RES 0.0000
   567 C567      18.417877    29.889098     3.546156 C    1 RES 0.0000
   568 C568      18.417877    29.889098    29.889156 C    1 RES 0.0000
   569 C569      16.723040     5.248702     3.544304 C    1 RES 0.0000
   570 C570      16.723040     5.248702    29.887304 C    1 RES 0.0000
   571 C571      16.723040    31.591702     3.544304 C    1 RES 0.0000
   572 C572      16.723040    31.591702    29.887304 C    1 RES 0.0000
   573 C573      -3.551539     7.922798     3.544304 C    1 RES 0.0000
   574 C574      -3.551539     7.922798    29.887304 C    1 RES 0.0000
   575 C575      22.791461     7.922798     3.544304 C    1 RES 0.0000
   576 C576      22.791461     7.922798    29.887304 C    1 RES 0.0000
   577 C577      -3.551539    18.420202    -3.544304 C    1 RES 0.0000
   578 C578      -3.551539    18.420202    22.798696 C    1 RES 0.0000
   579 C579      22.791461    18.420202    -3.544304 C    1 RES 0.0000
   580 C580      22.791461    18.420202    22.798696 C    1 RES 0.0000
   581 C581      16.723039    -5.248702    -3.544304 C    1 RES 0.0000
   582 C582      16.723039    -5.248702    22.798696 C    1 RES 0.0000
   583 C583      16.723039    21.094298    -3.544304 C    1 RES 0.0000
   584 C584      16.723039    21.094298    22.798696 C    1 RES 0.0000
   585 C585      16.723079    -3.544270    -5.248642 C    1 RES 0.0000
   586 C586      16.723079    -3.544270    21.094358 C    1 RES 0.0000
   587 C587      16.723079    22.798730    -5.248642 C    1 RES 0.0000
   588 C588      16.723079    22.798730    21.094358 C    1 RES 0.0000
   589 C589      16.723079     3.544271     5.248642 C    1 RES 0.0000
   590 C590      16.723079     3.544271    31.591642 C    1 RES 0.0000
   591 C591      16.723079    29.887271     5.248642 C    1 RES 0.0000
   592 C592      16.723079    29.887271    31.591642 C    1 RES 0.0000
   593 C593      -3.551579    16.715771    -5.248642 C    1 RES 0.0000
   594 C594      -3.551579    16.715771    21.094358 C    1 RES 0.0000
   595 C595      22.791421    16.715771    -5.248642 C    1 RES 0.0000
   596 C596      22.791421    16.715771    21.094358 C    1 RES 0.0000
   597 C597      -3.551579     9.627229     5.248642 C    1 RES 0.0000
   598 C598      -3.551579     9.627229    31.591642 C    1 RES 0.0000
   599 C599      22.791421     9.627229     5.248642 C    1 RES 0.0000
   600 C600      22.791421     9.627229    31.591642 C    1 RES 0.0000
   601 C601      18.537912    14.971545     7.813043 C    1 RES 0.0000
   602 C602      -5.366412     1.800045    18.529956 C    1 RES 0.0000
   603 C603      -5.366412    28.143045    18.529956 C    1 RES 0.0000
   604 C604      20.976588     1.800045    18.529956 C    1 RES 0.0000
   605 C605      20.976588    28.143045    18.529956 C    1 RES 0.0000
   606 C606      -5.366412    -1.800045     7.813044 C    1 RES 0.0000
   607 C607      -5.366412    24.542955     7.813044 C    1 RES 0.0000
   608 C608      20.976588    -1.800045     7.813044 C    1 RES 0.0000
   609 C609      20.976588    24.542955     7.813044 C    1 RES 0.0000
   610 C610      18.537912    11.371455    18.529957 C    1 RES 0.0000
   611 C611      14.971927     7.805282    18.529081 C    1 RES 0.0000
   612 C612      14.971927    18.537718     7.813919 C    1 RES 0.0000
   613 C613      -1.800427    -5.366218     7.813919 C    1 RES 0.0000
   614 C614      -1.800427    20.976782     7.813919 C    1 RES 0.0000
   615 C615      24.542573    -5.366218     7.813919 C    1 RES 0.0000
   616 C616      24.542573    20.976782     7.813919 C    1 RES 0.0000
   617 C617      -1.800427     5.366218    18.529081 C    1 RES 0.0000
   618 C618      -1.800427    31.709218    18.529081 C    1 RES 0.0000
   619 C619      24.542573     5.366218    18.529081 C    1 RES 0.0000
   620 C620      24.542573    31.709218    18.529081 C    1 RES 0.0000
   621 C621      -5.354414     5.355228    14.986821 C    1 RES 0.0000
   622 C622      -5.354414    31.698228    14.986821 C    1 RES 0.0000
   623 C623      20.988586     5.355228    14.986821 C    1 RES 0.0000
   624 C624      20.988586    31.698228    14.986821 C    1 RES 0.0000
   625 C625      18.525914     7.816272    14.986821 C    1 RES 0.0000
   626 C626      -5.354413    -5.355228    11.356179 C    1 RES 0.0000
   627 C627      -5.354413    20.987772    11.356179 C    1 RES 0.0000
   628 C628      20.988587    -5.355228    11.356179 C    1 RES 0.0000
   629 C629      20.988587    20.987772    11.356179 C    1 RES 0.0000
   630 C630      18.525914    18.526728    11.356179 C    1 RES 0.0000
   631 C631      -5.358456    -1.800045    18.537912 C    1 RES 0.0000
   632 C632      -5.358456    24.542955    18.537912 C    1 RES 0.0000
   633 C633      20.984544    -1.800045    18.537912 C    1 RES 0.0000
   634 C634      20.984544    24.542955    18.537912 C    1 RES 0.0000
   635 C635      18.529957    11.371455     7.805088 C    1 RES 0.0000
   636 C636      -5.358457     1.800045     7.805088 C    1 RES 0.0000
   637 C637      -5.358457    28.143045     7.805088 C    1 RES 0.0000
   638 C638      20.984543     1.800045     7.805088 C    1 RES 0.0000
   639 C639      20.984543    28.143045     7.805088 C    1 RES 0.0000
   640 C640      18.529956    14.971545    18.537912 C    1 RES 0.0000
   641 C641      18.529081    18.537718    14.971927 C    1 RES 0.0000
   642 C642      -5.357581    -5.366218    14.971927 C    1 RES 0.0000
   643 C643      -5.357581    20.976782    14.971927 C    1 RES 0.0000
   644 C644      20.985419    -5.366218    14.971927 C    1 RES 0.0000
   645 C645      20.985419    20.976782    14.971927 C    1 RES 0.0000
   646 C646      -5.357581     5.366218    11.371073 C    1 RES 0.0000
   647 C647      -5.357581    31.709218    11.371073 C    1 RES 0.0000
   648 C648      20.985419     5.366218    11.371073 C    1 RES 0.0000
   649 C649      20.985419    31.709218    11.371073 C    1 RES 0.0000
   650 C650      18.529081     7.805282    11.371073 C    1 RES 0.0000
   651 C651      14.986821     7.816272     7.817086 C    1 RES 0.0000
   652 C652      14.986821    18.526728    18.525913 C    1 RES 0.0000
   653 C653      -1.815321     5.355228     7.817086 C    1 RES 0.0000
   654 C654      -1.815321    31.698228     7.817086 C    1 RES 0.0000
   655 C655      24.527679     5.355228     7.817086 C    1 RES 0.0000
   656 C656      24.527679    31.698228     7.817086 C    1 RES 0.0000
   657 C657      -1.815321    -5.355228    18.525914 C    1 RES 0.0000
   658 C658      -1.815321    20.987772    18.525914 C    1 RES 0.0000
   659 C659      24.527679    -5.355228    18.525914 C    1 RES 0.0000
   660 C660      24.527679    20.987772    18.525914 C    1 RES 0.0000
   661 C661      17.863420    16.141090     8.483577 C    1 RES 0.0000
   662 C662      -4.691920     2.969590    17.859423 C    1 RES 0.0000
   663 C663      -4.691920    29.312590    17.859423 C    1 RES 0.0000
   664 C664      21.651080     2.969590    17.859423 C    1 RES 0.0000
   665 C665      21.651080    29.312590    17.859423 C    1 RES 0.0000
   666 C666      -4.691920    -2.969590     8.483576 C    1 RES 0.0000
   667 C667      -4.691920    23.373410     8.483576 C    1 RES 0.0000
   668 C668      21.651080    -2.969590     8.483576 C    1 RES 0.0000
   669 C669      21.651080    23.373410     8.483576 C    1 RES 0.0000
   670 C670      17.863420    10.201910    17.859423 C    1 RES 0.0000
   671 C671      16.141208     8.479214    17.859578 C    1 RES 0.0000
   672 C672      16.141208    17.863786     8.483422 C    1 RES 0.0000
   673 C673      -2.969708    -4.692286     8.483422 C    1 RES 0.0000
   674 C674      -2.969708    21.650714     8.483422 C    1 RES 0.0000
   675 C675      23.373292    -4.692286     8.483422 C    1 RES 0.0000
   676 C676      23.373292    21.650714     8.483422 C    1 RES 0.0000
   677 C677      -2.969708     4.692286    17.859578 C    1 RES 0.0000
   678 C678      -2.969708    31.035286    17.859578 C    1 RES 0.0000
   679 C679      23.373292     4.692286    17.859578 C    1 RES 0.0000
   680 C680      23.373292    31.035286    17.859578 C    1 RES 0.0000
   681 C681      -4.681839     4.682115    16.157148 C    1 RES 0.0000
   682 C682      -4.681839    31.025115    16.157148 C    1 RES 0.0000
   683 C683      21.661161     4.682115    16.157148 C    1 RES 0.0000
   684 C684      21.661161    31.025115    16.157148 C    1 RES 0.0000
   685 C685      17.853339     8.489385    16.157148 C    1 RES 0.0000
   686 C686      -4.681839    -4.682115    10.185852 C    1 RES 0.0000
   687 C687      -4.681839    21.660885    10.185852 C    1 RES 0.0000
   688 C688      21.661161    -4.682115    10.185852 C    1 RES 0.0000
   689 C689      21.661161    21.660885    10.185852 C    1 RES 0.0000
   690 C690      17.853339    17.853615    10.185852 C    1 RES 0.0000
   691 C691      -4.687923    -2.969590    17.863420 C    1 RES 0.0000
   692 C692      -4.687923    23.373410    17.863420 C    1 RES 0.0000
   693 C693      21.655077    -2.969590    17.863420 C    1 RES 0.0000
   694 C694      21.655077    23.373410    17.863420 C    1 RES 0.0000
   695 C695      17.859423    10.201910     8.479580 C    1 RES 0.0000
   696 C696      -4.687923     2.969590     8.479580 C    1 RES 0.0000
   697 C697      -4.687923    29.312590     8.479580 C    1 RES 0.0000
   698 C698      21.655077     2.969590     8.479580 C    1 RES 0.0000
   699 C699      21.655077    29.312590     8.479580 C    1 RES 0.0000
   700 C700      17.859424    16.141090    17.863420 C    1 RES 0.0000
   701 C701      17.859578    17.863786    16.141208 C    1 RES 0.0000
   702 C702      -4.688078    -4.692286    16.141208 C    1 RES 0.0000
   703 C703      -4.688078    21.650714    16.141208 C    1 RES 0.0000
   704 C704      21.654922    -4.692286    16.141208 C    1 RES 0.0000
   705 C705      21.654922    21.650714    16.141208 C    1 RES 0.0000
   706 C706      -4.688078     4.692286    10.201792 C    1 RES 0.0000
   707 C707      -4.688078    31.035286    10.201792 C    1 RES 0.0000
   708 C708      21.654922     4.692286    10.201792 C    1 RES 0.0000
   709 C709      21.654922    31.035286    10.201792 C    1 RES 0.0000
   710 C710      17.859578     8.479214    10.201792 C    1 RES 0.0000
   711 C711      16.157148     8.489385     8.489661 C    1 RES 0.0000
   712 C712      16.157148    17.853615    17.853339 C    1 RES 0.0000
   713 C713      -2.985648     4.682115     8.489661 C    1 RES 0.0000
   714 C714      -2.985648    31.025115     8.489661 C    1 RES 0.0000
   715 C715      23.357352     4.682115     8.489661 C    1 RES 0.0000
   716 C716      23.357352    31.025115     8.489661 C    1 RES 0.0000
   717 C717      -2.985648    -4.682115    17.853339 C    1 RES 0.0000
   718 C718      -2.985648    21.660885    17.853339 C    1 RES 0.0000
   719 C719      23.357352    -4.682115    17.853339 C    1 RES 0.0000
   720 C720      23.357352    21.660885    17.853339 C    1 RES 0.0000
   721 C721      16.717656    16.717598     7.925123 C    1 RES 0.0000
   722 C722      -3.546156     3.546098    18.417877 C    1 RES 0.0000
   723 C723      -3.546156    29.889098    18.417877 C    1 RES 0.0000
   724 C724      22.796844     3.546098    18.417877 C    1 RES 0.0000
   725 C725      22.796844    29.889098    18.417877 C    1 RES 0.0000
   726 C726      -3.546156    -3.546098     7.925123 C    1 RES 0.0000
   727 C727      -3.546156    22.796902     7.925123 C    1 RES 0.0000
   728 C728      22.796844    -3.546098     7.925123 C    1 RES 0.0000
   729 C729      22.796844    22.796902     7.925123 C    1 RES 0.0000
   730 C730      16.717656     9.625402    18.417877 C    1 RES 0.0000
   731 C731      16.715804     7.922798    16.723039 C    1 RES 0.0000
   732 C732      16.715804    18.420202     9.619961 C    1 RES 0.0000
   733 C733      -3.544304    -5.248702     9.619960 C    1 RES 0.0000
   734 C734      -3.544304    21.094298     9.619960 C    1 RES 0.0000
   735 C735      22.798696    -5.248702     9.619960 C    1 RES 0.0000
   736 C736      22.798696    21.094298     9.619960 C    1 RES 0.0000
   737 C737      -3.544304     5.248702    16.723039 C    1 RES 0.0000
   738 C738      -3.544304    31.591702    16.723039 C    1 RES 0.0000
   739 C739      22.798696     5.248702    16.723039 C    1 RES 0.0000
   740 C740      22.798696    31.591702    16.723039 C    1 RES 0.0000
   741 C741      -5.248642     3.544271    16.723079 C    1 RES 0.0000
   742 C742      -5.248642    29.887271    16.723079 C    1 RES 0.0000
   743 C743      21.094358     3.544271    16.723079 C    1 RES 0.0000
   744 C744      21.094358    29.887271    16.723079 C    1 RES 0.0000
   745 C745      18.420142     9.627229    16.723079 C    1 RES 0.0000
   746 C746      -5.248642    -3.544271     9.619921 C    1 RES 0.0000
   747 C747      -5.248642    22.798729     9.619921 C    1 RES 0.0000
   748 C748      21.094358    -3.544271     9.619921 C    1 RES 0.0000
   749 C749      21.094358    22.798729     9.619921 C    1 RES 0.0000
   750 C750      18.420142    16.715771     9.619921 C    1 RES 0.0000
   751 C751      -5.246377    -3.546098    16.717656 C    1 RES 0.0000
   752 C752      -5.246377    22.796902    16.717656 C    1 RES 0.0000
   753 C753      21.096623    -3.546098    16.717656 C    1 RES 0.0000
   754 C754      21.096623    22.796902    16.717656 C    1 RES 0.0000
   755 C755      18.417877     9.625402     9.625344 C    1 RES 0.0000
   756 C756      -5.246377     3.546098     9.625344 C    1 RES 0.0000
   757 C757      -5.246377    29.889098     9.625344 C    1 RES 0.0000
   758 C758      21.096623     3.546098     9.625344 C    1 RES 0.0000
   759 C759      21.096623    29.889098     9.625344 C    1 RES 0.0000
   760 C760      18.417877    16.717598    16.717656 C    1 RES 0.0000
   761 C761      16.723040    18.420202    16.715804 C    1 RES 0.0000
   762 C762      -3.551539    -5.248702    16.715804 C    1 RES 0.0000
   763 C763      -3.551539    21.094298    16.715804 C    1 RES 0.0000
   764 C764      22.791461    -5.248702    16.715804 C    1 RES 0.0000
   765 C765      22.791461    21.094298    16.715804 C    1 RES 0.0000
   766 C766      -3.551539     5.248702     9.627196 C    1 RES 0.0000
   767 C767      -3.551539    31.591702     9.627196 C    1 RES 0.0000
   768 C768      22.791461     5.248702     9.627196 C    1 RES 0.0000
   769 C769      22.791461    31.591702     9.627196 C    1 RES 0.0000
   770 C770      16.723039     7.922798     9.627196 C    1 RES 0.0000
   771 C771      16.723079     9.627230     7.922858 C    1 RES 0.0000
   772 C772      16.723079    16.715771    18.420142 C    1 RES 0.0000
   773 C773      -3.551579     3.544271     7.922858 C    1 RES 0.0000
   774 C774      -3.551579    29.887271     7.922858 C    1 RES 0.0000
   775 C775      22.791421     3.544271     7.922858 C    1 RES 0.0000
   776 C776      22.791421    29.887271     7.922858 C    1 RES 0.0000
   777 C777      -3.551579    -3.544271    18.420142 C    1 RES 0.0000
   778 C778      -3.551579    22.798729    18.420142 C    1 RES 0.0000
   779 C779      22.791421    -3.544271    18.420142 C    1 RES 0.0000
   780 C780      22.791421    22.798729    18.420142 C    1 RES 0.0000
   781 C781       5.366412     1.800045     7.813043 C    1 RES 0.0000
   782 C782       5.366412    28.143045     7.813043 C    1 RES 0.0000
   783 C783      31.709412     1.800045     7.813043 C    1 RES 0.0000
   784 C784      31.709412    28.143045     7.813043 C    1 RES 0.0000
   785 C785       7.805088    14.971545    18.529956 C    1 RES 0.0000
   786 C786       7.805088    11.371455     7.813044 C    1 RES 0.0000
   787 C787       5.366412    -1.800045    18.529957 C    1 RES 0.0000
   788 C788       5.366412    24.542955    18.529957 C    1 RES 0.0000
   789 C789      31.709412    -1.800045    18.529957 C    1 RES 0.0000
   790 C790      31.709412    24.542955    18.529957 C    1 RES 0.0000
   791 C791       1.800427    -5.366218    18.529081 C    1 RES 0.0000
   792 C792       1.800427    20.976782    18.529081 C    1 RES 0.0000
   793 C793      28.143427    -5.366218    18.529081 C    1 RES 0.0000
   794 C794      28.143427    20.976782    18.529081 C    1 RES 0.0000
   795 C795       1.800427     5.366218     7.813919 C    1 RES 0.0000
   796 C796       1.800427    31.709218     7.813919 C    1 RES 0.0000
   797 C797      28.143427     5.366218     7.813919 C    1 RES 0.0000
   798 C798      28.143427    31.709218     7.813919 C    1 RES 0.0000
   799 C799      11.371073     7.805282     7.813919 C    1 RES 0.0000
   800 C800      11.371073    18.537718    18.529081 C    1 RES 0.0000
   801 C801       7.817086    18.526728    14.986821 C    1 RES 0.0000
   802 C802       5.354414    -5.355228    14.986821 C    1 RES 0.0000
   803 C803       5.354414    20.987772    14.986821 C    1 RES 0.0000
   804 C804      31.697414    -5.355228    14.986821 C    1 RES 0.0000
   805 C805      31.697414    20.987772    14.986821 C    1 RES 0.0000
   806 C806       7.817087     7.816272    11.356179 C    1 RES 0.0000
   807 C807       5.354414     5.355228    11.356179 C    1 RES 0.0000
   808 C808       5.354414    31.698228    11.356179 C    1 RES 0.0000
   809 C809      31.697414     5.355228    11.356179 C    1 RES 0.0000
   810 C810      31.697414    31.698228    11.356179 C    1 RES 0.0000
   811 C811       7.813044    11.371455    18.537912 C    1 RES 0.0000
   812 C812       5.358457    -1.800045     7.805088 C    1 RES 0.0000
   813 C813       5.358457    24.542955     7.805088 C    1 RES 0.0000
   814 C814      31.701457    -1.800045     7.805088 C    1 RES 0.0000
   815 C815      31.701457    24.542955     7.805088 C    1 RES 0.0000
   816 C816       7.813043    14.971545     7.805088 C    1 RES 0.0000
   817 C817       5.358456     1.800045    18.537912 C    1 RES 0.0000
   818 C818       5.358456    28.143045    18.537912 C    1 RES 0.0000
   819 C819      31.701456     1.800045    18.537912 C    1 RES 0.0000
   820 C820      31.701456    28.143045    18.537912 C    1 RES 0.0000
   821 C821       5.357581     5.366218    14.971927 C    1 RES 0.0000
   822 C822       5.357581    31.709218    14.971927 C    1 RES 0.0000
   823 C823      31.700581     5.366218    14.971927 C    1 RES 0.0000
   824 C824      31.700581    31.709218    14.971927 C    1 RES 0.0000
   825 C825       7.813919     7.805282    14.971927 C    1 RES 0.0000
   826 C826       7.813919    18.537718    11.371073 C    1 RES 0.0000
   827 C827       5.357581    -5.366218    11.371073 C    1 RES 0.0000
   828 C828       5.357581    20.976782    11.371073 C    1 RES 0.0000
   829 C829      31.700581    -5.366218    11.371073 C    1 RES 0.0000
   830 C830      31.700581    20.976782    11.371073 C    1 RES 0.0000
   831 C831       1.815321    -5.355228     7.817086 C    1 RES 0.0000
   832 C832       1.815321    20.987772     7.817086 C    1 RES 0.0000
   833 C833      28.158321    -5.355228     7.817086 C    1 RES 0.0000
   834 C834      28.158321    20.987772     7.817086 C    1 RES 0.0000
   835 C835       1.815321     5.355228    18.525913 C    1 RES 0.0000
   836 C836       1.815321    31.698228    18.525913 C    1 RES 0.0000
   837 C837      28.158321     5.355228    18.525913 C    1 RES 0.0000
   838 C838      28.158321    31.698228    18.525913 C    1 RES 0.0000
   839 C839      11.356179    18.526728     7.817086 C    1 RES 0.0000
   840 C840      11.356179     7.816272    18.525914 C    1 RES 0.0000
   841 C841       4.691920     2.969590     8.483577 C    1 RES 0.0000
   842 C842       4.691920    29.312590     8.483577 C    1 RES 0.0000
   843 C843      31.034920     2.969590     8.483577 C    1 RES 0.0000
   844 C844      31.034920    29.312590     8.483577 C    1 RES 0.0000
   845 C845       8.479580    16.141090    17.859423 C    1 RES 0.0000
   846 C846       8.479580    10.201910     8.483576 C    1 RES 0.0000
   847 C847       4.691920    -2.969590    17.859423 C    1 RES 0.0000
   848 C848       4.691920    23.373410    17.859423 C    1 RES 0.0000
   849 C849      31.034920    -2.969590    17.859423 C    1 RES 0.0000
   850 C850      31.034920    23.373410    17.859423 C    1 RES 0.0000
   851 C851       2.969708    -4.692286    17.859578 C    1 RES 0.0000
   852 C852       2.969708    21.650714    17.859578 C    1 RES 0.0000
   853 C853      29.312708    -4.692286    17.859578 C    1 RES 0.0000
   854 C854      29.312708    21.650714    17.859578 C    1 RES 0.0000
   855 C855       2.969708     4.692286     8.483422 C    1 RES 0.0000
   856 C856       2.969708    31.035286     8.483422 C    1 RES 0.0000
   857 C857      29.312708     4.692286     8.483422 C    1 RES 0.0000
   858 C858      29.312708    31.035286     8.483422 C    1 RES 0.0000
   859 C859      10.201792     8.479214     8.483422 C    1 RES 0.0000
   860 C860      10.201792    17.863786    17.859578 C    1 RES 0.0000
   861 C861       8.489661    17.853615    16.157148 C    1 RES 0.0000
   862 C862       4.681839    -4.682115    16.157148 C    1 RES 0.0000
   863 C863       4.681839    21.660885    16.157148 C    1 RES 0.0000
   864 C864      31.024839    -4.682115    16.157148 C    1 RES 0.0000
   865 C865      31.024839    21.660885    16.157148 C    1 RES 0.0000
   866 C866       8.489661     8.489385    10.185852 C    1 RES 0.0000
   867 C867       4.681839     4.682115    10.185852 C    1 RES 0.0000
   868 C868       4.681839    31.025115    10.185852 C    1 RES 0.0000
   869 C869      31.024839     4.682115    10.185852 C    1 RES 0.0000
   870 C870      31.024839    31.025115    10.185852 C    1 RES 0.0000
   871 C871       8.483577    10.201910    17.863420 C    1 RES 0.0000
   872 C872       4.687923    -2.969590     8.479580 C    1 RES 0.0000
   873 C873       4.687923    23.373410     8.479580 C    1 RES 0.0000
   874 C874      31.030923    -2.969590     8.479580 C    1 RES 0.0000
   875 C875      31.030923    23.373410     8.479580 C    1 RES 0.0000
   876 C876       8.483577    16.141090     8.479580 C    1 RES 0.0000
   877 C877       4.687924     2.969590    17.863420 C    1 RES 0.0000
   878 C878       4.687924    29.312590    17.863420 C    1 RES 0.0000
   879 C879      31.030924     2.969590    17.863420 C    1 RES 0.0000
   880 C880      31.030924    29.312590    17.863420 C    1 RES 0.0000
   881 C881       4.688078     4.692286    16.141208 C    1 RES 0.0000
   882 C882       4.688078    31.035286    16.141208 C    1 RES 0.0000
   883 C883      31.031078     4.692286    16.141208 C    1 RES 0.0000
   884 C884      31.031078    31.035286    16.141208 C    1 RES 0.0000
   885 C885       8.483422     8.479214    16.141208 C    1 RES 0.0000
   886 C886       8.483422    17.863786    10.201792 C    1 RES 0.0000
   887 C887       4.688078    -4.692286    10.201792 C    1 RES 0.0000
   888 C888       4.688078    21.650714    10.201792 C    1 RES 0.0000
   889 C889      31.031078    -4.692286    10.201792 C    1 RES 0.0000
   890 C890      31.031078    21.650714    10.201792 C    1 RES 0.0000
   891 C891       2.985648    -4.682115     8.489661 C    1 RES 0.0000
   892 C892       2.985648    21.660885     8.489661 C    1 RES 0.0000
   893 C893      29.328648    -4.682115     8.489661 C    1 RES 0.0000
   894 C894      29.328648    21.660885     8.489661 C    1 RES 0.0000
   895 C895       2.985648     4.682115    17.853339 C    1 RES 0.0000
   896 C896       2.985648    31.025115    17.853339 C    1 RES 0.0000
   897 C897      29.328648     4.682115    17.853339 C    1 RES 0.0000
   898 C898      29.328648    31.025115    17.853339 C    1 RES 0.0000
   899 C899      10.185852    17.853615     8.489661 C    1 RES 0.0000
   900 C900      10.185852     8.489385    17.853339 C    1 RES 0.0000
   901 C901       3.546156     3.546098     7.925123 C    1 RES 0.0000
   902 C902       3.546156    29.889098     7.925123 C    1 RES 0.0000
   903 C903      29.889156     3.546098     7.925123 C    1 RES 0.0000
   904 C904      29.889156    29.889098     7.925123 C    1 RES 0.0000
   905 C905       9.625344    16.717598    18.417877 C    1 RES 0.0000
   906 C906       9.625344     9.625402     7.925123 C    1 RES 0.0000
   907 C907       3.546156    -3.546098    18.417877 C    1 RES 0.0000
   908 C908       3.546156    22.796902    18.417877 C    1 RES 0.0000
   909 C909      29.889156    -3.546098    18.417877 C    1 RES 0.0000
   910 C910      29.889156    22.796902    18.417877 C    1 RES 0.0000
   911 C911       3.544304    -5.248702    16.723039 C    1 RES 0.0000
   912 C912       3.544304    21.094298    16.723039 C    1 RES 0.0000
   913 C913      29.887304    -5.248702    16.723039 C    1 RES 0.0000
   914 C914      29.887304    21.094298    16.723039 C    1 RES 0.0000
   915 C915       3.544304     5.248702     9.619961 C    1 RES 0.0000
   916 C916       3.544304    31.591702     9.619961 C    1 RES 0.0000
   917 C917      29.887304     5.248702     9.619961 C    1 RES 0.0000
   918 C918      29.887304    31.591702     9.619961 C    1 RES 0.0000
   919 C919       9.627196     7.922798     9.619960 C    1 RES 0.0000
   920 C920       9.627196    18.420202    16.723039 C    1 RES 0.0000
   921 C921       7.922858    16.715771    16.723079 C    1 RES 0.0000
   922 C922       5.248642    -3.544271    16.723079 C    1 RES 0.0000
   923 C923       5.248642    22.798729    16.723079 C    1 RES 0.0000
   924 C924      31.591642    -3.544271    16.723079 C    1 RES 0.0000
   925 C925      31.591642    22.798729    16.723079 C    1 RES 0.0000
   926 C926       7.922858     9.627229     9.619921 C    1 RES 0.0000
   927 C927       5.248642     3.544271     9.619921 C    1 RES 0.0000
   928 C928       5.248642    29.887271     9.619921 C    1 RES 0.0000
   929 C929      31.591642     3.544271     9.619921 C    1 RES 0.0000
   930 C930      31.591642    29.887271     9.619921 C    1 RES 0.0000
   931 C931       7.925123     9.625402    16.717656 C    1 RES 0.0000
   932 C932       5.246377    -3.546098     9.625344 C    1 RES 0.0000
   933 C933       5.246377    22.796902     9.625344 C    1 RES 0.0000
   934 C934      31.589377    -3.546098     9.625344 C    1 RES 0.0000
   935 C935      31.589377    22.796902     9.625344 C    1 RES 0.0000
   936 C936       7.925123    16.717598     9.625344 C    1 RES 0.0000
   937 C937       5.246377     3.546098    16.717656 C    1 RES 0.0000
   938 C938       5.246377    29.889098    16.717656 C    1 RES 0.0000
   939 C939      31.589377     3.546098    16.717656 C    1 RES 0.0000
   940 C940      31.589377    29.889098    16.717656 C    1 RES 0.0000
   941 C941       3.551540     5.248702    16.715804 C    1 RES 0.0000
   942 C942       3.551540    31.591702    16.715804 C    1 RES 0.0000
   943 C943      29.894540     5.248702    16.715804 C    1 RES 0.0000
   944 C944      29.894540    31.591702    16.715804 C    1 RES 0.0000
   945 C945       9.619961     7.922798    16.715804 C    1 RES 0.0000
   946 C946       9.619961    18.420202     9.627196 C    1 RES 0.0000
   947 C947       3.551539    -5.248702     9.627196 C    1 RES 0.0000
   948 C948       3.551539    21.094298     9.627196 C    1 RES 0.0000
   949 C949      29.894539    -5.248702     9.627196 C    1 RES 0.0000
   950 C950      29.894539    21.094298     9.627196 C    1 RES 0.0000
   951 C951       3.551579    -3.544270     7.922858 C    1 RES 0.0000
   952 C952       3.551579    22.798730     7.922858 C    1 RES 0.0000
   953 C953      29.894579    -3.544270     7.922858 C    1 RES 0.0000
   954 C954      29.894579    22.798730     7.922858 C    1 RES 0.0000
   955 C955       3.551579     3.544271    18.420142 C    1 RES 0.0000
   956 C956       3.551579    29.887271    18.420142 C    1 RES 0.0000
   957 C957      29.894579     3.544271    18.420142 C    1 RES 0.0000
   958 C958      29.894579    29.887271    18.420142 C    1 RES 0.0000
   959 C959       9.619921    16.715771     7.922858 C    1 RES 0.0000
   960 C960       9.619921     9.627229    18.420142 C    1 RES 0.0000
   961 C961       5.366412    14.971545    -5.358457 C    1 RES 0.0000
   962 C962       5.366412    14.971545    20.984543 C    1 RES 0.0000
   963 C963      31.709412    14.971545    -5.358457 C    1 RES 0.0000
   964 C964      31.709412    14.971545    20.984543 C    1 RES 0.0000
   965 C965       7.805088     1.800045     5.358456 C    1 RES 0.0000
   966 C966       7.805088     1.800045    31.701456 C    1 RES 0.0000
   967 C967       7.805088    28.143045     5.358456 C    1 RES 0.0000
   968 C968       7.805088    28.143045    31.701456 C    1 RES 0.0000
   969 C969       7.805088    -1.800045    -5.358456 C    1 RES 0.0000
   970 C970       7.805088    -1.800045    20.984544 C    1 RES 0.0000
   971 C971       7.805088    24.542955    -5.358456 C    1 RES 0.0000
   972 C972       7.805088    24.542955    20.984544 C    1 RES 0.0000
   973 C973       5.366412    11.371455     5.358457 C    1 RES 0.0000
   974 C974       5.366412    11.371455    31.701457 C    1 RES 0.0000
   975 C975      31.709412    11.371455     5.358457 C    1 RES 0.0000
   976 C976      31.709412    11.371455    31.701457 C    1 RES 0.0000
   977 C977       1.800427     7.805282     5.357581 C    1 RES 0.0000
   978 C978       1.800427     7.805282    31.700581 C    1 RES 0.0000
   979 C979      28.143427     7.805282     5.357581 C    1 RES 0.0000
   980 C980      28.143427     7.805282    31.700581 C    1 RES 0.0000
   981 C981       1.800427    18.537718    -5.357581 C    1 RES 0.0000
   982 C982       1.800427    18.537718    20.985419 C    1 RES 0.0000
   983 C983      28.143427    18.537718    -5.357581 C    1 RES 0.0000
   984 C984      28.143427    18.537718    20.985419 C    1 RES 0.0000
   985 C985      11.371073    -5.366218    -5.357581 C    1 RES 0.0000
   986 C986      11.371073    -5.366218    20.985419 C    1 RES 0.0000
   987 C987      11.371073    20.976782    -5.357581 C    1 RES 0.0000
   988 C988      11.371073    20.976782    20.985419 C    1 RES 0.0000
   989 C989      11.371073     5.366218     5.357581 C    1 RES 0.0000
   990 C990      11.371073     5.366218    31.700581 C    1 RES 0.0000
   991 C991      11.371073    31.709218     5.357581 C    1 RES 0.0000
   992 C992      11.371073    31.709218    31.700581 C    1 RES 0.0000
   993 C993       7.817086     5.355228     1.815321 C    1 RES 0.0000
   994 C994       7.817086     5.355228    28.158321 C    1 RES 0.0000
   995 C995       7.817086    31.698228     1.815321 C    1 RES 0.0000
   996 C996       7.817086    31.698228    28.158321 C    1 RES 0.0000
   997 C997       5.354414     7.816272     1.815321 C    1 RES 0.0000
   998 C998       5.354414     7.816272    28.158321 C    1 RES 0.0000
   999 C999      31.697414     7.816272     1.815321 C    1 RES 0.0000
  1000 C1000     31.697414     7.816272    28.158321 C    1 RES 0.0000
  1001 C1001      7.817087    -5.355228    -1.815321 C    1 RES 0.0000
  1002 C1002      7.817087    -5.355228    24.527679 C    1 RES 0.0000
  1003 C1003      7.817087    20.987772    -1.815321 C    1 RES 0.0000
  1004 C1004      7.817087    20.987772    24.527679 C    1 RES 0.0000
  1005 C1005      5.354414    18.526728    -1.815321 C    1 RES 0.0000
  1006 C1006      5.354414    18.526728    24.527679 C    1 RES 0.0000
  1007 C1007     31.697414    18.526728    -1.815321 C    1 RES 0.0000
  1008 C1008     31.697414    18.526728    24.527679 C    1 RES 0.0000
  1009 C1009      7.813044    -1.800045     5.366412 C    1 RES 0.0000
  1010 C1010      7.813044    -1.800045    31.709412 C    1 RES 0.0000
  1011 C1011      7.813044    24.542955     5.366412 C    1 RES 0.0000
  1012 C1012      7.813044    24.542955    31.709412 C    1 RES 0.0000
  1013 C1013      5.358457    11.371455    -5.366412 C    1 RES 0.0000
  1014 C1014      5.358457    11.371455    20.976588 C    1 RES 0.0000
  1015 C1015     31.701457    11.371455    -5.366412 C    1 RES 0.0000
  1016 C1016     31.701457    11.371455    20.976588 C    1 RES 0.0000
  1017 C1017      7.813043     1.800045    -5.366412 C    1 RES 0.0000
  1018 C1018      7.813043     1.800045    20.976588 C    1 RES 0.0000
  1019 C1019      7.813043    28.143045    -5.366412 C    1 RES 0.0000
  1020 C1020      7.813043    28.143045    20.976588 C    1 RES 0.0000
  1021 C1021      5.358456    14.971545     5.366412 C    1 RES 0.0000
  1022 C1022      5.358456    14.971545    31.709412 C    1 RES 0.0000
  1023 C1023     31.701456    14.971545     5.366412 C    1 RES 0.0000
  1024 C1024     31.701456    14.971545    31.709412 C    1 RES 0.0000
  1025 C1025      5.357581    18.537718     1.800427 C    1 RES 0.0000
  1026 C1026      5.357581    18.537718    28.143427 C    1 RES 0.0000
  1027 C1027     31.700581    18.537718     1.800427 C    1 RES 0.0000
  1028 C1028     31.700581    18.537718    28.143427 C    1 RES 0.0000
  1029 C1029      7.813919    -5.366218     1.800427 C    1 RES 0.0000
  1030 C1030      7.813919    -5.366218    28.143427 C    1 RES 0.0000
  1031 C1031      7.813919    20.976782     1.800427 C    1 RES 0.0000
  1032 C1032      7.813919    20.976782    28.143427 C    1 RES 0.0000
  1033 C1033      7.813919     5.366218    -1.800427 C    1 RES 0.0000
  1034 C1034      7.813919     5.366218    24.542573 C    1 RES 0.0000
  1035 C1035      7.813919    31.709218    -1.800427 C    1 RES 0.0000
  1036 C1036      7.813919    31.709218    24.542573 C    1 RES 0.0000
  1037 C1037      5.357581     7.805282    -1.800427 C    1 RES 0.0000
  1038 C1038      5.357581     7.805282    24.542573 C    1 RES 0.0000
  1039 C1039     31.700581     7.805282    -1.800427 C    1 RES 0.0000
  1040 C1040     31.700581     7.805282    24.542573 C    1 RES 0.0000
  1041 C1041      1.815321     7.816272    -5.354414 C    1 RES 0.0000
  1042 C1042      1.815321     7.816272    20.988586 C    1 RES 0.0000
  1043 C1043     28.158321     7.816272    -5.354414 C    1 RES 0.0000
  1044 C1044     28.158321     7.816272    20.988586 C    1 RES 0.0000
  1045 C1045      1.815321    18.526728     5.354413 C    1 RES 0.0000
  1046 C1046      1.815321    18.526728    31.697413 C    1 RES 0.0000
  1047 C1047     28.158321    18.526728     5.354413 C    1 RES 0.0000
  1048 C1048     28.158321    18.526728    31.697413 C    1 RES 0.0000
  1049 C1049     11.356179     5.355228    -5.354414 C    1 RES 0.0000
  1050 C1050     11.356179     5.355228    20.988586 C    1 RES 0.0000
  1051 C1051     11.356179    31.698228    -5.354414 C    1 RES 0.0000
  1052 C1052     11.356179    31.698228    20.988586 C    1 RES 0.0000
  1053 C1053     11.356179    -5.355228     5.354414 C    1 RES 0.0000
  1054 C1054     11.356179    -5.355228    31.697414 C    1 RES 0.0000
  1055 C1055     11.356179    20.987772     5.354414 C    1 RES 0.0000
  1056 C1056     11.356179    20.987772    31.697414 C    1 RES 0.0000
  1057 C1057      4.691920    16.141090    -4.687923 C    1 RES 0.0000
  1058 C1058      4.691920    16.141090    21.655077 C    1 RES 0.0000
  1059 C1059     31.034920    16.141090    -4.687923 C    1 RES 0.0000
  1060 C1060     31.034920    16.141090    21.655077 C    1 RES 0.0000
  1061 C1061      8.479580     2.969590     4.687923 C    1 RES 0.0000
  1062 C1062      8.479580     2.969590    31.030923 C    1 RES 0.0000
  1063 C1063      8.479580    29.312590     4.687923 C    1 RES 0.0000
  1064 C1064      8.479580    29.312590    31.030923 C    1 RES 0.0000
  1065 C1065      8.479580    -2.969590    -4.687924 C    1 RES 0.0000
  1066 C1066      8.479580    -2.969590    21.655076 C    1 RES 0.0000
  1067 C1067      8.479580    23.373410    -4.687924 C    1 RES 0.0000
  1068 C1068      8.479580    23.373410    21.655076 C    1 RES 0.0000
  1069 C1069      4.691920    10.201910     4.687923 C    1 RES 0.0000
  1070 C1070      4.691920    10.201910    31.030923 C    1 RES 0.0000
  1071 C1071     31.034920    10.201910     4.687923 C    1 RES 0.0000
  1072 C1072     31.034920    10.201910    31.030923 C    1 RES 0.0000
  1073 C1073      2.969708     8.479214     4.688078 C    1 RES 0.0000
  1074 C1074      2.969708     8.479214    31.031078 C    1 RES 0.0000
  1075 C1075     29.312708     8.479214     4.688078 C    1 RES 0.0000
  1076 C1076     29.312708     8.479214    31.031078 C    1 RES 0.0000
  1077 C1077      2.969708    17.863786    -4.688078 C    1 RES 0.0000
  1078 C1078      2.969708    17.863786    21.654922 C    1 RES 0.0000
  1079 C1079     29.312708    17.863786    -4.688078 C    1 RES 0.0000
  1080 C1080     29.312708    17.863786    21.654922 C    1 RES 0.0000
  1081 C1081     10.201792    -4.692286    -4.688078 C    1 RES 0.0000
  1082 C1082     10.201792    -4.692286    21.654922 C    1 RES 0.0000
  1083 C1083     10.201792    21.650714    -4.688078 C    1 RES 0.0000
  1084 C1084     10.201792    21.650714    21.654922 C    1 RES 0.0000
  1085 C1085     10.201792     4.692286     4.688078 C    1 RES 0.0000
  1086 C1086     10.201792     4.692286    31.031078 C    1 RES 0.0000
  1087 C1087     10.201792    31.035286     4.688078 C    1 RES 0.0000
  1088 C1088     10.201792    31.035286    31.031078 C    1 RES 0.0000
  1089 C1089      8.489661     4.682115     2.985648 C    1 RES 0.0000
  1090 C1090      8.489661     4.682115    29.328648 C    1 RES 0.0000
  1091 C1091      8.489661    31.025115     2.985648 C    1 RES 0.0000
  1092 C1092      8.489661    31.025115    29.328648 C    1 RES 0.0000
  1093 C1093      4.681839     8.489385     2.985648 C    1 RES 0.0000
  1094 C1094      4.681839     8.489385    29.328648 C    1 RES 0.0000
  1095 C1095     31.024839     8.489385     2.985648 C    1 RES 0.0000
  1096 C1096     31.024839     8.489385    29.328648 C    1 RES 0.0000
  1097 C1097      8.489661    -4.682115    -2.985648 C    1 RES 0.0000
  1098 C1098      8.489661    -4.682115    23.357352 C    1 RES 0.0000
  1099 C1099      8.489661    21.660885    -2.985648 C    1 RES 0.0000
  1100 C1100      8.489661    21.660885    23.357352 C    1 RES 0.0000
  1101 C1101      4.681839    17.853615    -2.985648 C    1 RES 0.0000
  1102 C1102      4.681839    17.853615    23.357352 C    1 RES 0.0000
  1103 C1103     31.024839    17.853615    -2.985648 C    1 RES 0.0000
  1104 C1104     31.024839    17.853615    23.357352 C    1 RES 0.0000
  1105 C1105      8.483577    -2.969590     4.691920 C    1 RES 0.0000
  1106 C1106      8.483577    -2.969590    31.034920 C    1 RES 0.0000
  1107 C1107      8.483577    23.373410     4.691920 C    1 RES 0.0000
  1108 C1108      8.483577    23.373410    31.034920 C    1 RES 0.0000
  1109 C1109      4.687923    10.201910    -4.691920 C    1 RES 0.0000
  1110 C1110      4.687923    10.201910    21.651080 C    1 RES 0.0000
  1111 C1111     31.030923    10.201910    -4.691920 C    1 RES 0.0000
  1112 C1112     31.030923    10.201910    21.651080 C    1 RES 0.0000
  1113 C1113      8.483577     2.969590    -4.691920 C    1 RES 0.0000
  1114 C1114      8.483577     2.969590    21.651080 C    1 RES 0.0000
  1115 C1115      8.483577    29.312590    -4.691920 C    1 RES 0.0000
  1116 C1116      8.483577    29.312590    21.651080 C    1 RES 0.0000
  1117 C1117      4.687924    16.141090     4.691920 C    1 RES 0.0000
  1118 C1118      4.687924    16.141090    31.034920 C    1 RES 0.0000
  1119 C1119     31.030924    16.141090     4.691920 C    1 RES 0.0000
  1120 C1120     31.030924    16.141090    31.034920 C    1 RES 0.0000
  1121 C1121      4.688078    17.863786     2.969708 C    1 RES 0.0000
  1122 C1122      4.688078    17.863786    29.312708 C    1 RES 0.0000
  1123 C1123     31.031078    17.863786     2.969708 C    1 RES 0.0000
  1124 C1124     31.031078    17.863786    29.312708 C    1 RES 0.0000
  1125 C1125      8.483422    -4.692286     2.969708 C    1 RES 0.0000
  1126 C1126      8.483422    -4.692286    29.312708 C    1 RES 0.0000
  1127 C1127      8.483422    21.650714     2.969708 C    1 RES 0.0000
  1128 C1128      8.483422    21.650714    29.312708 C    1 RES 0.0000
  1129 C1129      8.483422     4.692286    -2.969708 C    1 RES 0.0000
  1130 C1130      8.483422     4.692286    23.373292 C    1 RES 0.0000
  1131 C1131      8.483422    31.035286    -2.969708 C    1 RES 0.0000
  1132 C1132      8.483422    31.035286    23.373292 C    1 RES 0.0000
  1133 C1133      4.688078     8.479214    -2.969708 C    1 RES 0.0000
  1134 C1134      4.688078     8.479214    23.373292 C    1 RES 0.0000
  1135 C1135     31.031078     8.479214    -2.969708 C    1 RES 0.0000
  1136 C1136     31.031078     8.479214    23.373292 C    1 RES 0.0000
  1137 C1137      2.985648     8.489385    -4.681839 C    1 RES 0.0000
  1138 C1138      2.985648     8.489385    21.661161 C    1 RES 0.0000
  1139 C1139     29.328648     8.489385    -4.681839 C    1 RES 0.0000
  1140 C1140     29.328648     8.489385    21.661161 C    1 RES 0.0000
  1141 C1141      2.985648    17.853615     4.681839 C    1 RES 0.0000
  1142 C1142      2.985648    17.853615    31.024839 C    1 RES 0.0000
  1143 C1143     29.328648    17.853615     4.681839 C    1 RES 0.0000
  1144 C1144     29.328648    17.853615    31.024839 C    1 RES 0.0000
  1145 C1145     10.185852     4.682115    -4.681839 C    1 RES 0.0000
  1146 C1146     10.185852     4.682115    21.661161 C    1 RES 0.0000
  1147 C1147     10.185852    31.025115    -4.681839 C    1 RES 0.0000
  1148 C1148     10.185852    31.025115    21.661161 C    1 RES 0.0000
  1149 C1149     10.185852    -4.682115     4.681839 C    1 RES 0.0000
  1150 C1150     10.185852    -4.682115    31.024839 C    1 RES 0.0000
  1151 C1151     10.185852    21.660885     4.681839 C    1 RES 0.0000
  1152 C1152     10.185852    21.660885    31.024839 C    1 RES 0.0000
  1153 C1153      3.546156    16.717598    -5.246377 C    1 RES 0.0000
  1154 C1154      3.546156    16.717598    21.096623 C    1 RES 0.0000
  1155 C1155     29.889156    16.717598    -5.246377 C    1 RES 0.0000
  1156 C1156     29.889156    16.717598    21.096623 C    1 RES 0.0000
  1157 C1157      9.625344     3.546098     5.246377 C    1 RES 0.0000
  1158 C1158      9.625344     3.546098    31.589377 C    1 RES 0.0000
  1159 C1159      9.625344    29.889098     5.246377 C    1 RES 0.0000
  1160 C1160      9.625344    29.889098    31.589377 C    1 RES 0.0000
  1161 C1161      9.625344    -3.546098    -5.246377 C    1 RES 0.0000
  1162 C1162      9.625344    -3.546098    21.096623 C    1 RES 0.0000
  1163 C1163      9.625344    22.796902    -5.246377 C    1 RES 0.0000
  1164 C1164      9.625344    22.796902    21.096623 C    1 RES 0.0000
  1165 C1165      3.546156     9.625402     5.246377 C    1 RES 0.0000
  1166 C1166      3.546156     9.625402    31.589377 C    1 RES 0.0000
  1167 C1167     29.889156     9.625402     5.246377 C    1 RES 0.0000
  1168 C1168     29.889156     9.625402    31.589377 C    1 RES 0.0000
  1169 C1169      3.544304     7.922798     3.551539 C    1 RES 0.0000
  1170 C1170      3.544304     7.922798    29.894539 C    1 RES 0.0000
  1171 C1171     29.887304     7.922798     3.551539 C    1 RES 0.0000
  1172 C1172     29.887304     7.922798    29.894539 C    1 RES 0.0000
  1173 C1173      3.544304    18.420202    -3.551539 C    1 RES 0.0000
  1174 C1174      3.544304    18.420202    22.791461 C    1 RES 0.0000
  1175 C1175     29.887304    18.420202    -3.551539 C    1 RES 0.0000
  1176 C1176     29.887304    18.420202    22.791461 C    1 RES 0.0000
  1177 C1177      9.627196    -5.248702    -3.551540 C    1 RES 0.0000
  1178 C1178      9.627196    -5.248702    22.791460 C    1 RES 0.0000
  1179 C1179      9.627196    21.094298    -3.551540 C    1 RES 0.0000
  1180 C1180      9.627196    21.094298    22.791460 C    1 RES 0.0000
  1181 C1181      9.627196     5.248702     3.551539 C    1 RES 0.0000
  1182 C1182      9.627196     5.248702    29.894539 C    1 RES 0.0000
  1183 C1183      9.627196    31.591702     3.551539 C    1 RES 0.0000
  1184 C1184      9.627196    31.591702    29.894539 C    1 RES 0.0000
  1185 C1185      7.922858     3.544271     3.551579 C    1 RES 0.0000
  1186 C1186      7.922858     3.544271    29.894579 C    1 RES 0.0000
  1187 C1187      7.922858    29.887271     3.551579 C    1 RES 0.0000
  1188 C1188      7.922858    29.887271    29.894579 C    1 RES 0.0000
  1189 C1189      5.248642     9.627229     3.551579 C    1 RES 0.0000
  1190 C1190      5.248642     9.627229    29.894579 C    1 RES 0.0000
  1191 C1191     31.591642     9.627229     3.551579 C    1 RES 0.0000
  1192 C1192     31.591642     9.627229    29.894579 C    1 RES 0.0000
  1193 C1193      7.922858    -3.544271    -3.551579 C    1 RES 0.0000
  1194 C1194      7.922858    -3.544271    22.791421 C    1 RES 0.0000
  1195 C1195      7.922858    22.798729    -3.551579 C    1 RES 0.0000
  1196 C1196      7.922858    22.798729    22.791421 C    1 RES 0.0000
  1197 C1197      5.248642    16.715771    -3.551579 C    1 RES 0.0000
  1198 C1198      5.248642    16.715771    22.791421 C    1 RES 0.0000
  1199 C1199     31.591642    16.715771    -3.551579 C    1 RES 0.0000
  1200 C1200     31.591642    16.715771    22.791421 C    1 RES 0.0000
  1201 C1201      7.925123    -3.546098     3.546156 C    1 RES 0.0000
  1202 C1202      7.925123    -3.546098    29.889156 C    1 RES 0.0000
  1203 C1203      7.925123    22.796902     3.546156 C    1 RES 0.0000
  1204 C1204      7.925123    22.796902    29.889156 C    1 RES 0.0000
  1205 C1205      5.246377     9.625402    -3.546156 C    1 RES 0.0000
  1206 C1206      5.246377     9.625402    22.796844 C    1 RES 0.0000
  1207 C1207     31.589377     9.625402    -3.546156 C    1 RES 0.0000
  1208 C1208     31.589377     9.625402    22.796844 C    1 RES 0.0000
  1209 C1209      7.925123     3.546098    -3.546156 C    1 RES 0.0000
  1210 C1210      7.925123     3.546098    22.796844 C    1 RES 0.0000
  1211 C1211      7.925123    29.889098    -3.546156 C    1 RES 0.0000
  1212 C1212      7.925123    29.889098    22.796844 C    1 RES 0.0000
  1213 C1213      5.246377    16.717598     3.546156 C    1 RES 0.0000
  1214 C1214      5.246377    16.717598    29.889156 C    1 RES 0.0000
  1215 C1215     31.589377    16.717598     3.546156 C    1 RES 0.0000
  1216 C1216     31.589377    16.717598    29.889156 C    1 RES 0.0000
  1217 C1217      3.551540    18.420202     3.544304 C    1 RES 0.0000
  1218 C1218      3.551540    18.420202    29.887304 C    1 RES 0.0000
  1219 C1219     29.894540    18.420202     3.544304 C    1 RES 0.0000
  1220 C1220     29.894540    18.420202    29.887304 C    1 RES 0.0000
  1221 C1221      9.619961    -5.248702     3.544304 C    1 RES 0.0000
  1222 C1222      9.619961    -5.248702    29.887304 C    1 RES 0.0000
  1223 C1223      9.619961    21.094298     3.544304 C    1 RES 0.0000
  1224 C1224      9.619961    21.094298    29.887304 C    1 RES 0.0000
  1225 C1225      9.619961     5.248702    -3.544304 C    1 RES 0.0000
  1226 C1226      9.619961     5.248702    22.798696 C    1 RES 0.0000
  1227 C1227      9.619961    31.591702    -3.544304 C    1 RES 0.0000
  1228 C1228      9.619961    31.591702    22.798696 C    1 RES 0.0000
  1229 C1229      3.551539     7.922798    -3.544304 C    1 RES 0.0000
  1230 C1230      3.551539     7.922798    22.798696 C    1 RES 0.0000
  1231 C1231     29.894539     7.922798    -3.544304 C    1 RES 0.0000
  1232 C1232     29.894539     7.922798    22.798696 C    1 RES 0.0000
  1233 C1233      3.551579     9.627230    -5.248642 C    1 RES 0.0000
  1234 C1234      3.551579     9.627230    21.094358 C    1 RES 0.0000
  1235 C1235     29.894579     9.627230    -5.248642 C    1 RES 0.0000
  1236 C1236     29.894579     9.627230    21.094358 C    1 RES 0.0000
  1237 C1237      3.551579    16.715771     5.248642 C    1 RES 0.0000
  1238 C1238      3.551579    16.715771    31.591642 C    1 RES 0.0000
  1239 C1239     29.894579    16.715771     5.248642 C    1 RES 0.0000
  1240 C1240     29.894579    16.715771    31.591642 C    1 RES 0.0000
  1241 C1241      9.619921     3.544271    -5.248642 C    1 RES 0.0000
  1242 C1242      9.619921     3.544271    21.094358 C    1 RES 0.0000
  1243 C1243      9.619921    29.887271    -5.248642 C    1 RES 0.0000
  1244 C1244      9.619921    29.887271    21.094358 C    1 RES 0.0000
  1245 C1245      9.619921    -3.544271     5.248642 C    1 RES 0.0000
  1246 C1246      9.619921    -3.544271    31.591642 C    1 RES 0.0000
  1247 C1247      9.619921    22.798729     5.248642 C    1 RES 0.0000
  1248 C1248      9.619921    22.798729    31.591642 C    1 RES 0.0000
  1249 O1249     18.028079     1.357379    19.932933 O    1 RES 0.0000
  1250 O1250     18.028079    27.700379    19.932933 O    1 RES 0.0000
  1251 O1251     -4.856579    14.528879     6.410066 O    1 RES 0.0000
  1252 O1252     21.486421    14.528879     6.410066 O    1 RES 0.0000
  1253 O1253     -4.856579    11.814121    19.932933 O    1 RES 0.0000
  1254 O1254     21.486421    11.814121    19.932933 O    1 RES 0.0000
  1255 O1255     18.028079    -1.357379     6.410066 O    1 RES 0.0000
  1256 O1256     18.028079    24.985621     6.410066 O    1 RES 0.0000
  1257 O1257     14.551134    19.928883     4.815779 O    1 RES 0.0000
  1258 O1258     14.551134    19.928883    31.158779 O    1 RES 0.0000
  1259 O1259     14.551135     6.414117    -4.815780 O    1 RES 0.0000
  1260 O1260     14.551135     6.414117    21.527220 O    1 RES 0.0000
  1261 O1261     -1.379634     6.757383    -4.815780 O    1 RES 0.0000
  1262 O1262     -1.379634     6.757383    21.527220 O    1 RES 0.0000
  1263 O1263     24.963366     6.757383    -4.815780 O    1 RES 0.0000
  1264 O1264     24.963366     6.757383    21.527220 O    1 RES 0.0000
  1265 O1265     -1.379634    19.585617     4.815779 O    1 RES 0.0000
  1266 O1266     -1.379634    19.585617    31.158779 O    1 RES 0.0000
  1267 O1267     24.963366    19.585617     4.815779 O    1 RES 0.0000
  1268 O1268     24.963366    19.585617    31.158779 O    1 RES 0.0000
  1269 O1269     19.935311    18.002990     1.385484 O    1 RES 0.0000
  1270 O1270     19.935311    18.002990    27.728484 O    1 RES 0.0000
  1271 O1271     19.579190    -4.831489     1.385484 O    1 RES 0.0000
  1272 O1272     19.579190    -4.831489    27.728484 O    1 RES 0.0000
  1273 O1273     19.579190    21.511511     1.385484 O    1 RES 0.0000
  1274 O1274     19.579190    21.511511    27.728484 O    1 RES 0.0000
  1275 O1275     19.935311     8.340010    -1.385484 O    1 RES 0.0000
  1276 O1276     19.935311     8.340010    24.957516 O    1 RES 0.0000
  1277 O1277     19.579190     4.831489    -1.385484 O    1 RES 0.0000
  1278 O1278     19.579190     4.831489    24.957516 O    1 RES 0.0000
  1279 O1279     19.579190    31.174489    -1.385484 O    1 RES 0.0000
  1280 O1280     19.579190    31.174489    24.957516 O    1 RES 0.0000
  1281 O1281     19.932934    11.814121     4.856579 O    1 RES 0.0000
  1282 O1282     19.932934    11.814121    31.199579 O    1 RES 0.0000
  1283 O1283     19.581567    -1.357379    -4.856579 O    1 RES 0.0000
  1284 O1284     19.581567    -1.357379    21.486421 O    1 RES 0.0000
  1285 O1285     19.581567    24.985621    -4.856579 O    1 RES 0.0000
  1286 O1286     19.581567    24.985621    21.486421 O    1 RES 0.0000
  1287 O1287     19.932934    14.528879    -4.856579 O    1 RES 0.0000
  1288 O1288     19.932934    14.528879    21.486421 O    1 RES 0.0000
  1289 O1289     19.581567     1.357379     4.856579 O    1 RES 0.0000
  1290 O1290     19.581567     1.357379    31.199579 O    1 RES 0.0000
  1291 O1291     19.581567    27.700379     4.856579 O    1 RES 0.0000
  1292 O1292     19.581567    27.700379    31.199579 O    1 RES 0.0000
  1293 O1293     17.987280     6.414117     1.379634 O    1 RES 0.0000
  1294 O1294     17.987280     6.414117    27.722634 O    1 RES 0.0000
  1295 O1295     -4.815779     6.757383     1.379634 O    1 RES 0.0000
  1296 O1296     -4.815779     6.757383    27.722634 O    1 RES 0.0000
  1297 O1297     21.527221     6.757383     1.379634 O    1 RES 0.0000
  1298 O1298     21.527221     6.757383    27.722634 O    1 RES 0.0000
  1299 O1299     -4.815779    19.585617    -1.379635 O    1 RES 0.0000
  1300 O1300     -4.815779    19.585617    24.963365 O    1 RES 0.0000
  1301 O1301     21.527221    19.585617    -1.379635 O    1 RES 0.0000
  1302 O1302     21.527221    19.585617    24.963365 O    1 RES 0.0000
  1303 O1303     17.987280    19.928883    -1.379635 O    1 RES 0.0000
  1304 O1304     17.987280    19.928883    24.963365 O    1 RES 0.0000
  1305 O1305     14.556984    -4.831489    19.935310 O    1 RES 0.0000
  1306 O1306     14.556984    21.511511    19.935310 O    1 RES 0.0000
  1307 O1307     14.556984     4.831490     6.407689 O    1 RES 0.0000
  1308 O1308     14.556984    31.174490     6.407689 O    1 RES 0.0000
  1309 O1309     -1.385484    18.002989    19.935310 O    1 RES 0.0000
  1310 O1310     24.957516    18.002989    19.935310 O    1 RES 0.0000
  1311 O1311     -1.385484     8.340010     6.407689 O    1 RES 0.0000
  1312 O1312     24.957516     8.340010     6.407689 O    1 RES 0.0000
  1313 O1313     -4.817834    11.788883     6.415612 O    1 RES 0.0000
  1314 O1314     21.525166    11.788883     6.415612 O    1 RES 0.0000
  1315 O1315     17.989334    -1.382617    19.927388 O    1 RES 0.0000
  1316 O1316     17.989334    24.960383    19.927388 O    1 RES 0.0000
  1317 O1317     17.989334     1.382617     6.415611 O    1 RES 0.0000
  1318 O1318     17.989334    27.725617     6.415611 O    1 RES 0.0000
  1319 O1319     -4.817834    14.554117    19.927388 O    1 RES 0.0000
  1320 O1320     21.525166    14.554117    19.927388 O    1 RES 0.0000
  1321 O1321     -1.381802    19.578133    -4.828788 O    1 RES 0.0000
  1322 O1322     -1.381802    19.578133    21.514212 O    1 RES 0.0000
  1323 O1323     24.961198    19.578133    -4.828788 O    1 RES 0.0000
  1324 O1324     24.961198    19.578133    21.514212 O    1 RES 0.0000
  1325 O1325     -1.381802     6.764866     4.828787 O    1 RES 0.0000
  1326 O1326     -1.381802     6.764866    31.171787 O    1 RES 0.0000
  1327 O1327     24.961198     6.764866     4.828787 O    1 RES 0.0000
  1328 O1328     24.961198     6.764866    31.171787 O    1 RES 0.0000
  1329 O1329     14.553302     6.406634     4.828787 O    1 RES 0.0000
  1330 O1330     14.553302     6.406634    31.171787 O    1 RES 0.0000
  1331 O1331     14.553302    19.936367    -4.828788 O    1 RES 0.0000
  1332 O1332     14.553302    19.936367    21.514212 O    1 RES 0.0000
  1333 O1333     19.581244    -4.857027    -1.358194 O    1 RES 0.0000
  1334 O1334     19.581244    -4.857027    24.984806 O    1 RES 0.0000
  1335 O1335     19.581244    21.485973    -1.358194 O    1 RES 0.0000
  1336 O1336     19.581244    21.485973    24.984806 O    1 RES 0.0000
  1337 O1337     19.933256    18.028528    -1.358194 O    1 RES 0.0000
  1338 O1338     19.933256    18.028528    24.984806 O    1 RES 0.0000
  1339 O1339     19.581244     4.857027     1.358194 O    1 RES 0.0000
  1340 O1340     19.581244     4.857027    27.701194 O    1 RES 0.0000
  1341 O1341     19.581244    31.200027     1.358194 O    1 RES 0.0000
  1342 O1342     19.581244    31.200027    27.701194 O    1 RES 0.0000
  1343 O1343     19.933256     8.314472     1.358194 O    1 RES 0.0000
  1344 O1344     19.933256     8.314472    27.701194 O    1 RES 0.0000
  1345 O1345     19.587112     1.382617    -4.817834 O    1 RES 0.0000
  1346 O1346     19.587112     1.382617    21.525166 O    1 RES 0.0000
  1347 O1347     19.587112    27.725617    -4.817834 O    1 RES 0.0000
  1348 O1348     19.587112    27.725617    21.525166 O    1 RES 0.0000
  1349 O1349     19.927388    14.554117     4.817834 O    1 RES 0.0000
  1350 O1350     19.927388    14.554117    31.160834 O    1 RES 0.0000
  1351 O1351     19.587112    -1.382617     4.817834 O    1 RES 0.0000
  1352 O1352     19.587112    -1.382617    31.160834 O    1 RES 0.0000
  1353 O1353     19.587112    24.960383     4.817834 O    1 RES 0.0000
  1354 O1354     19.587112    24.960383    31.160834 O    1 RES 0.0000
  1355 O1355     19.927389    11.788883    -4.817834 O    1 RES 0.0000
  1356 O1356     19.927389    11.788883    21.525166 O    1 RES 0.0000
  1357 O1357     -4.828787     6.764866    -1.381802 O    1 RES 0.0000
  1358 O1358     -4.828787     6.764866    24.961198 O    1 RES 0.0000
  1359 O1359     21.514213     6.764866    -1.381802 O    1 RES 0.0000
  1360 O1360     21.514213     6.764866    24.961198 O    1 RES 0.0000
  1361 O1361     18.000288     6.406633    -1.381802 O    1 RES 0.0000
  1362 O1362     18.000288     6.406633    24.961198 O    1 RES 0.0000
  1363 O1363     18.000288    19.936367     1.381802 O    1 RES 0.0000
  1364 O1364     18.000288    19.936367    27.724802 O    1 RES 0.0000
  1365 O1365     -4.828787    19.578134     1.381802 O    1 RES 0.0000
  1366 O1366     -4.828787    19.578134    27.724802 O    1 RES 0.0000
  1367 O1367     21.514213    19.578134     1.381802 O    1 RES 0.0000
  1368 O1368     21.514213    19.578134    27.724802 O    1 RES 0.0000
  1369 O1369     -1.358194    18.028528     6.409744 O    1 RES 0.0000
  1370 O1370     24.984806    18.028528     6.409744 O    1 RES 0.0000
  1371 O1371     -1.358194     8.314473    19.933256 O    1 RES 0.0000
  1372 O1372     24.984806     8.314473    19.933256 O    1 RES 0.0000
  1373 O1373     14.529694    -4.857028     6.409744 O    1 RES 0.0000
  1374 O1374     14.529694    21.485972     6.409744 O    1 RES 0.0000
  1375 O1375     14.529694     4.857028    19.933256 O    1 RES 0.0000
  1376 O1376     14.529694    31.200028    19.933256 O    1 RES 0.0000
  1377 O1377     18.028079    14.528879     6.761433 O    1 RES 0.0000
  1378 O1378     -4.856579     1.357379    19.581566 O    1 RES 0.0000
  1379 O1379     -4.856579    27.700379    19.581566 O    1 RES 0.0000
  1380 O1380     21.486421     1.357379    19.581566 O    1 RES 0.0000
  1381 O1381     21.486421    27.700379    19.581566 O    1 RES 0.0000
  1382 O1382     -4.856579    -1.357379     6.761433 O    1 RES 0.0000
  1383 O1383     -4.856579    24.985621     6.761433 O    1 RES 0.0000
  1384 O1384     21.486421    -1.357379     6.761433 O    1 RES 0.0000
  1385 O1385     21.486421    24.985621     6.761433 O    1 RES 0.0000
  1386 O1386     18.028079    11.814121    19.581566 O    1 RES 0.0000
  1387 O1387     14.551134     6.757383    17.987279 O    1 RES 0.0000
  1388 O1388     14.551135    19.585617     8.355720 O    1 RES 0.0000
  1389 O1389     -1.379634    19.928883     8.355720 O    1 RES 0.0000
  1390 O1390     24.963366    19.928883     8.355720 O    1 RES 0.0000
  1391 O1391     -1.379634     6.414117    17.987279 O    1 RES 0.0000
  1392 O1392     24.963366     6.414117    17.987279 O    1 RES 0.0000
  1393 O1393     19.935311     4.831490    14.556984 O    1 RES 0.0000
  1394 O1394     19.935311    31.174490    14.556984 O    1 RES 0.0000
  1395 O1395     19.579190     8.340011    14.556984 O    1 RES 0.0000
  1396 O1396     19.935311    -4.831490    11.786016 O    1 RES 0.0000
  1397 O1397     19.935311    21.511510    11.786016 O    1 RES 0.0000
  1398 O1398     19.579190    18.002989    11.786016 O    1 RES 0.0000
  1399 O1399     19.932934    -1.357379    18.028079 O    1 RES 0.0000
  1400 O1400     19.932934    24.985621    18.028079 O    1 RES 0.0000
  1401 O1401     19.581567    11.814121     8.314921 O    1 RES 0.0000
  1402 O1402     19.932934     1.357379     8.314921 O    1 RES 0.0000
  1403 O1403     19.932934    27.700379     8.314921 O    1 RES 0.0000
  1404 O1404     19.581567    14.528879    18.028079 O    1 RES 0.0000
  1405 O1405     17.987280    19.585617    14.551134 O    1 RES 0.0000
  1406 O1406     -4.815779    19.928883    14.551134 O    1 RES 0.0000
  1407 O1407     21.527221    19.928883    14.551134 O    1 RES 0.0000
  1408 O1408     -4.815779     6.414117    11.791865 O    1 RES 0.0000
  1409 O1409     21.527221     6.414117    11.791865 O    1 RES 0.0000
  1410 O1410     17.987280     6.757383    11.791865 O    1 RES 0.0000
  1411 O1411     14.556984     8.340011     6.763810 O    1 RES 0.0000
  1412 O1412     14.556984    18.002990    19.579189 O    1 RES 0.0000
  1413 O1413     -1.385484     4.831489     6.763810 O    1 RES 0.0000
  1414 O1414     -1.385484    31.174489     6.763810 O    1 RES 0.0000
  1415 O1415     24.957516     4.831489     6.763810 O    1 RES 0.0000
  1416 O1416     24.957516    31.174489     6.763810 O    1 RES 0.0000
  1417 O1417     -1.385484    -4.831490    19.579189 O    1 RES 0.0000
  1418 O1418     -1.385484    21.511510    19.579189 O    1 RES 0.0000
  1419 O1419     24.957516    -4.831490    19.579189 O    1 RES 0.0000
  1420 O1420     24.957516    21.511510    19.579189 O    1 RES 0.0000
  1421 O1421     -4.817834    -1.382617    19.587112 O    1 RES 0.0000
  1422 O1422     -4.817834    24.960383    19.587112 O    1 RES 0.0000
  1423 O1423     21.525166    -1.382617    19.587112 O    1 RES 0.0000
  1424 O1424     21.525166    24.960383    19.587112 O    1 RES 0.0000
  1425 O1425     17.989334    11.788883     6.755888 O    1 RES 0.0000
  1426 O1426     17.989334    14.554117    19.587111 O    1 RES 0.0000
  1427 O1427     -4.817834     1.382617     6.755888 O    1 RES 0.0000
  1428 O1428     -4.817834    27.725617     6.755888 O    1 RES 0.0000
  1429 O1429     21.525166     1.382617     6.755888 O    1 RES 0.0000
  1430 O1430     21.525166    27.725617     6.755888 O    1 RES 0.0000
  1431 O1431     -1.381802     6.406633     8.342712 O    1 RES 0.0000
  1432 O1432     24.961198     6.406633     8.342712 O    1 RES 0.0000
  1433 O1433     -1.381802    19.936366    18.000287 O    1 RES 0.0000
  1434 O1434     24.961198    19.936366    18.000287 O    1 RES 0.0000
  1435 O1435     14.553302    19.578134    18.000287 O    1 RES 0.0000
  1436 O1436     14.553302     6.764867     8.342712 O    1 RES 0.0000
  1437 O1437     19.581244     8.314473    11.813306 O    1 RES 0.0000
  1438 O1438     19.933256     4.857028    11.813306 O    1 RES 0.0000
  1439 O1439     19.933256    31.200028    11.813306 O    1 RES 0.0000
  1440 O1440     19.581244    18.028527    14.529694 O    1 RES 0.0000
  1441 O1441     19.933256    -4.857028    14.529694 O    1 RES 0.0000
  1442 O1442     19.933256    21.485972    14.529694 O    1 RES 0.0000
  1443 O1443     19.587112    14.554117     8.353666 O    1 RES 0.0000
  1444 O1444     19.927388     1.382617    17.989334 O    1 RES 0.0000
  1445 O1445     19.927388    27.725617    17.989334 O    1 RES 0.0000
  1446 O1446     19.587112    11.788883    17.989334 O    1 RES 0.0000
  1447 O1447     19.927389    -1.382617     8.353666 O    1 RES 0.0000
  1448 O1448     19.927389    24.960383     8.353666 O    1 RES 0.0000
  1449 O1449     -4.828787    19.936366    11.789698 O    1 RES 0.0000
  1450 O1450     21.514213    19.936366    11.789698 O    1 RES 0.0000
  1451 O1451     18.000288    19.578133    11.789698 O    1 RES 0.0000
  1452 O1452     18.000288     6.764867    14.553302 O    1 RES 0.0000
  1453 O1453     -4.828787     6.406634    14.553302 O    1 RES 0.0000
  1454 O1454     21.514213     6.406634    14.553302 O    1 RES 0.0000
  1455 O1455     -1.358194     4.857028    19.581244 O    1 RES 0.0000
  1456 O1456     -1.358194    31.200028    19.581244 O    1 RES 0.0000
  1457 O1457     24.984806     4.857028    19.581244 O    1 RES 0.0000
  1458 O1458     24.984806    31.200028    19.581244 O    1 RES 0.0000
  1459 O1459     -1.358194    -4.857027     6.761756 O    1 RES 0.0000
  1460 O1460     -1.358194    21.485973     6.761756 O    1 RES 0.0000
  1461 O1461     24.984806    -4.857027     6.761756 O    1 RES 0.0000
  1462 O1462     24.984806    21.485973     6.761756 O    1 RES 0.0000
  1463 O1463     14.529694     8.314472    19.581244 O    1 RES 0.0000
  1464 O1464     14.529694    18.028528     6.761756 O    1 RES 0.0000
  1465 O1465      4.856579     1.357379     6.761433 O    1 RES 0.0000
  1466 O1466      4.856579    27.700379     6.761433 O    1 RES 0.0000
  1467 O1467     31.199579     1.357379     6.761433 O    1 RES 0.0000
  1468 O1468     31.199579    27.700379     6.761433 O    1 RES 0.0000
  1469 O1469      8.314921    14.528879    19.581566 O    1 RES 0.0000
  1470 O1470      8.314921    11.814121     6.761433 O    1 RES 0.0000
  1471 O1471      4.856579    -1.357379    19.581566 O    1 RES 0.0000
  1472 O1472      4.856579    24.985621    19.581566 O    1 RES 0.0000
  1473 O1473     31.199579    -1.357379    19.581566 O    1 RES 0.0000
  1474 O1474     31.199579    24.985621    19.581566 O    1 RES 0.0000
  1475 O1475      1.379634    19.928883    17.987279 O    1 RES 0.0000
  1476 O1476     27.722634    19.928883    17.987279 O    1 RES 0.0000
  1477 O1477      1.379635     6.414117     8.355720 O    1 RES 0.0000
  1478 O1478     27.722635     6.414117     8.355720 O    1 RES 0.0000
  1479 O1479     11.791866     6.757383     8.355720 O    1 RES 0.0000
  1480 O1480     11.791866    19.585617    17.987279 O    1 RES 0.0000
  1481 O1481      6.763811    18.002990    14.556984 O    1 RES 0.0000
  1482 O1482      6.407690    -4.831489    14.556984 O    1 RES 0.0000
  1483 O1483      6.407690    21.511511    14.556984 O    1 RES 0.0000
  1484 O1484      6.763811     8.340010    11.786016 O    1 RES 0.0000
  1485 O1485      6.407690     4.831489    11.786016 O    1 RES 0.0000
  1486 O1486      6.407690    31.174489    11.786016 O    1 RES 0.0000
  1487 O1487      6.761434    11.814121    18.028079 O    1 RES 0.0000
  1488 O1488      6.410067    -1.357379     8.314921 O    1 RES 0.0000
  1489 O1489      6.410067    24.985621     8.314921 O    1 RES 0.0000
  1490 O1490      6.761434    14.528879     8.314921 O    1 RES 0.0000
  1491 O1491      6.410067     1.357379    18.028079 O    1 RES 0.0000
  1492 O1492      6.410067    27.700379    18.028079 O    1 RES 0.0000
  1493 O1493      4.815780     6.414117    14.551134 O    1 RES 0.0000
  1494 O1494     31.158780     6.414117    14.551134 O    1 RES 0.0000
  1495 O1495      8.355721     6.757383    14.551134 O    1 RES 0.0000
  1496 O1496      8.355721    19.585617    11.791865 O    1 RES 0.0000
  1497 O1497      4.815780    19.928883    11.791865 O    1 RES 0.0000
  1498 O1498     31.158780    19.928883    11.791865 O    1 RES 0.0000
  1499 O1499      1.385484    -4.831489     6.763810 O    1 RES 0.0000
  1500 O1500      1.385484    21.511511     6.763810 O    1 RES 0.0000
  1501 O1501     27.728484    -4.831489     6.763810 O    1 RES 0.0000
  1502 O1502     27.728484    21.511511     6.763810 O    1 RES 0.0000
  1503 O1503      1.385484     4.831490    19.579189 O    1 RES 0.0000
  1504 O1504      1.385484    31.174490    19.579189 O    1 RES 0.0000
  1505 O1505     27.728484     4.831490    19.579189 O    1 RES 0.0000
  1506 O1506     27.728484    31.174490    19.579189 O    1 RES 0.0000
  1507 O1507     11.786016    18.002989     6.763810 O    1 RES 0.0000
  1508 O1508     11.786016     8.340010    19.579189 O    1 RES 0.0000
  1509 O1509      8.353666    11.788883    19.587112 O    1 RES 0.0000
  1510 O1510      4.817834    -1.382617     6.755888 O    1 RES 0.0000
  1511 O1511      4.817834    24.960383     6.755888 O    1 RES 0.0000
  1512 O1512     31.160834    -1.382617     6.755888 O    1 RES 0.0000
  1513 O1513     31.160834    24.960383     6.755888 O    1 RES 0.0000
  1514 O1514      4.817834     1.382617    19.587111 O    1 RES 0.0000
  1515 O1515      4.817834    27.725617    19.587111 O    1 RES 0.0000
  1516 O1516     31.160834     1.382617    19.587111 O    1 RES 0.0000
  1517 O1517     31.160834    27.725617    19.587111 O    1 RES 0.0000
  1518 O1518      8.353666    14.554117     6.755888 O    1 RES 0.0000
  1519 O1519     11.789698    19.578133     8.342712 O    1 RES 0.0000
  1520 O1520     11.789698     6.764866    18.000287 O    1 RES 0.0000
  1521 O1521      1.381802     6.406634    18.000287 O    1 RES 0.0000
  1522 O1522     27.724802     6.406634    18.000287 O    1 RES 0.0000
  1523 O1523      1.381802    19.936367     8.342712 O    1 RES 0.0000
  1524 O1524     27.724802    19.936367     8.342712 O    1 RES 0.0000
  1525 O1525      6.409744    -4.857027    11.813306 O    1 RES 0.0000
  1526 O1526      6.409744    21.485973    11.813306 O    1 RES 0.0000
  1527 O1527      6.761756    18.028528    11.813306 O    1 RES 0.0000
  1528 O1528      6.409744     4.857027    14.529694 O    1 RES 0.0000
  1529 O1529      6.409744    31.200027    14.529694 O    1 RES 0.0000
  1530 O1530      6.761756     8.314472    14.529694 O    1 RES 0.0000
  1531 O1531      6.415612     1.382617     8.353666 O    1 RES 0.0000
  1532 O1532      6.415612    27.725617     8.353666 O    1 RES 0.0000
  1533 O1533      6.755888    14.554117    17.989334 O    1 RES 0.0000
  1534 O1534      6.415612    -1.382617    17.989334 O    1 RES 0.0000
  1535 O1535      6.415612    24.960383    17.989334 O    1 RES 0.0000
  1536 O1536      6.755889    11.788883     8.353666 O    1 RES 0.0000
  1537 O1537      8.342713     6.764866    11.789698 O    1 RES 0.0000
  1538 O1538      4.828788     6.406633    11.789698 O    1 RES 0.0000
  1539 O1539     31.171788     6.406633    11.789698 O    1 RES 0.0000
  1540 O1540      4.828788    19.936367    14.553302 O    1 RES 0.0000
  1541 O1541     31.171788    19.936367    14.553302 O    1 RES 0.0000
  1542 O1542      8.342713    19.578134    14.553302 O    1 RES 0.0000
  1543 O1543     11.813306    18.028528    19.581244 O    1 RES 0.0000
  1544 O1544     11.813306     8.314473     6.761756 O    1 RES 0.0000
  1545 O1545      1.358194    -4.857028    19.581244 O    1 RES 0.0000
  1546 O1546      1.358194    21.485972    19.581244 O    1 RES 0.0000
  1547 O1547     27.701194    -4.857028    19.581244 O    1 RES 0.0000
  1548 O1548     27.701194    21.485972    19.581244 O    1 RES 0.0000
  1549 O1549      1.358194     4.857028     6.761756 O    1 RES 0.0000
  1550 O1550      1.358194    31.200028     6.761756 O    1 RES 0.0000
  1551 O1551     27.701194     4.857028     6.761756 O    1 RES 0.0000
  1552 O1552     27.701194    31.200028     6.761756 O    1 RES 0.0000
  1553 O1553      4.856579    14.528879    19.932933 O    1 RES 0.0000
  1554 O1554     31.199579    14.528879    19.932933 O    1 RES 0.0000
  1555 O1555      8.314921     1.357379     6.410066 O    1 RES 0.0000
  1556 O1556      8.314921    27.700379     6.410066 O    1 RES 0.0000
  1557 O1557      8.314921    -1.357379    19.932933 O    1 RES 0.0000
  1558 O1558      8.314921    24.985621    19.932933 O    1 RES 0.0000
  1559 O1559      4.856579    11.814121     6.410066 O    1 RES 0.0000
  1560 O1560     31.199579    11.814121     6.410066 O    1 RES 0.0000
  1561 O1561      1.379634     6.757383     4.815779 O    1 RES 0.0000
  1562 O1562      1.379634     6.757383    31.158779 O    1 RES 0.0000
  1563 O1563     27.722634     6.757383     4.815779 O    1 RES 0.0000
  1564 O1564     27.722634     6.757383    31.158779 O    1 RES 0.0000
  1565 O1565      1.379635    19.585617    -4.815780 O    1 RES 0.0000
  1566 O1566      1.379635    19.585617    21.527220 O    1 RES 0.0000
  1567 O1567     27.722635    19.585617    -4.815780 O    1 RES 0.0000
  1568 O1568     27.722635    19.585617    21.527220 O    1 RES 0.0000
  1569 O1569     11.791866    19.928883    -4.815780 O    1 RES 0.0000
  1570 O1570     11.791866    19.928883    21.527220 O    1 RES 0.0000
  1571 O1571     11.791866     6.414117     4.815779 O    1 RES 0.0000
  1572 O1572     11.791866     6.414117    31.158779 O    1 RES 0.0000
  1573 O1573      6.763811     4.831490     1.385484 O    1 RES 0.0000
  1574 O1574      6.763811     4.831490    27.728484 O    1 RES 0.0000
  1575 O1575      6.763811    31.174490     1.385484 O    1 RES 0.0000
  1576 O1576      6.763811    31.174490    27.728484 O    1 RES 0.0000
  1577 O1577      6.407690     8.340011     1.385484 O    1 RES 0.0000
  1578 O1578      6.407690     8.340011    27.728484 O    1 RES 0.0000
  1579 O1579      6.763811    -4.831490    -1.385484 O    1 RES 0.0000
  1580 O1580      6.763811    -4.831490    24.957516 O    1 RES 0.0000
  1581 O1581      6.763811    21.511510    -1.385484 O    1 RES 0.0000
  1582 O1582      6.763811    21.511510    24.957516 O    1 RES 0.0000
  1583 O1583      6.407690    18.002989    -1.385484 O    1 RES 0.0000
  1584 O1584      6.407690    18.002989    24.957516 O    1 RES 0.0000
  1585 O1585      6.761434    -1.357379     4.856579 O    1 RES 0.0000
  1586 O1586      6.761434    -1.357379    31.199579 O    1 RES 0.0000
  1587 O1587      6.761434    24.985621     4.856579 O    1 RES 0.0000
  1588 O1588      6.761434    24.985621    31.199579 O    1 RES 0.0000
  1589 O1589      6.410067    11.814121    -4.856579 O    1 RES 0.0000
  1590 O1590      6.410067    11.814121    21.486421 O    1 RES 0.0000
  1591 O1591      6.761434     1.357379    -4.856579 O    1 RES 0.0000
  1592 O1592      6.761434     1.357379    21.486421 O    1 RES 0.0000
  1593 O1593      6.761434    27.700379    -4.856579 O    1 RES 0.0000
  1594 O1594      6.761434    27.700379    21.486421 O    1 RES 0.0000
  1595 O1595      6.410067    14.528879     4.856579 O    1 RES 0.0000
  1596 O1596      6.410067    14.528879    31.199579 O    1 RES 0.0000
  1597 O1597      4.815780    19.585617     1.379634 O    1 RES 0.0000
  1598 O1598      4.815780    19.585617    27.722634 O    1 RES 0.0000
  1599 O1599     31.158780    19.585617     1.379634 O    1 RES 0.0000
  1600 O1600     31.158780    19.585617    27.722634 O    1 RES 0.0000
  1601 O1601      8.355721    19.928883     1.379634 O    1 RES 0.0000
  1602 O1602      8.355721    19.928883    27.722634 O    1 RES 0.0000
  1603 O1603      8.355721     6.414117    -1.379635 O    1 RES 0.0000
  1604 O1604      8.355721     6.414117    24.963365 O    1 RES 0.0000
  1605 O1605      4.815780     6.757383    -1.379635 O    1 RES 0.0000
  1606 O1606      4.815780     6.757383    24.963365 O    1 RES 0.0000
  1607 O1607     31.158780     6.757383    -1.379635 O    1 RES 0.0000
  1608 O1608     31.158780     6.757383    24.963365 O    1 RES 0.0000
  1609 O1609      1.385484     8.340011    19.935310 O    1 RES 0.0000
  1610 O1610     27.728484     8.340011    19.935310 O    1 RES 0.0000
  1611 O1611      1.385484    18.002990     6.407689 O    1 RES 0.0000
  1612 O1612     27.728484    18.002990     6.407689 O    1 RES 0.0000
  1613 O1613     11.786016     4.831489    19.935310 O    1 RES 0.0000
  1614 O1614     11.786016    31.174489    19.935310 O    1 RES 0.0000
  1615 O1615     11.786016    -4.831490     6.407689 O    1 RES 0.0000
  1616 O1616     11.786016    21.511510     6.407689 O    1 RES 0.0000
  1617 O1617      8.353666    -1.382617     6.415612 O    1 RES 0.0000
  1618 O1618      8.353666    24.960383     6.415612 O    1 RES 0.0000
  1619 O1619      4.817834    11.788883    19.927388 O    1 RES 0.0000
  1620 O1620     31.160834    11.788883    19.927388 O    1 RES 0.0000
  1621 O1621      4.817834    14.554117     6.415611 O    1 RES 0.0000
  1622 O1622     31.160834    14.554117     6.415611 O    1 RES 0.0000
  1623 O1623      8.353666     1.382617    19.927388 O    1 RES 0.0000
  1624 O1624      8.353666    27.725617    19.927388 O    1 RES 0.0000
  1625 O1625     11.789698     6.406633    -4.828788 O    1 RES 0.0000
  1626 O1626     11.789698     6.406633    21.514212 O    1 RES 0.0000
  1627 O1627     11.789698    19.936366     4.828787 O    1 RES 0.0000
  1628 O1628     11.789698    19.936366    31.171787 O    1 RES 0.0000
  1629 O1629      1.381802    19.578134     4.828787 O    1 RES 0.0000
  1630 O1630      1.381802    19.578134    31.171787 O    1 RES 0.0000
  1631 O1631     27.724802    19.578134     4.828787 O    1 RES 0.0000
  1632 O1632     27.724802    19.578134    31.171787 O    1 RES 0.0000
  1633 O1633      1.381802     6.764867    -4.828788 O    1 RES 0.0000
  1634 O1634      1.381802     6.764867    21.514212 O    1 RES 0.0000
  1635 O1635     27.724802     6.764867    -4.828788 O    1 RES 0.0000
  1636 O1636     27.724802     6.764867    21.514212 O    1 RES 0.0000
  1637 O1637      6.409744     8.314473    -1.358194 O    1 RES 0.0000
  1638 O1638      6.409744     8.314473    24.984806 O    1 RES 0.0000
  1639 O1639      6.761756     4.857028    -1.358194 O    1 RES 0.0000
  1640 O1640      6.761756     4.857028    24.984806 O    1 RES 0.0000
  1641 O1641      6.761756    31.200028    -1.358194 O    1 RES 0.0000
  1642 O1642      6.761756    31.200028    24.984806 O    1 RES 0.0000
  1643 O1643      6.409744    18.028527     1.358194 O    1 RES 0.0000
  1644 O1644      6.409744    18.028527    27.701194 O    1 RES 0.0000
  1645 O1645      6.761756    -4.857028     1.358194 O    1 RES 0.0000
  1646 O1646      6.761756    -4.857028    27.701194 O    1 RES 0.0000
  1647 O1647      6.761756    21.485972     1.358194 O    1 RES 0.0000
  1648 O1648      6.761756    21.485972    27.701194 O    1 RES 0.0000
  1649 O1649      6.415612    14.554117    -4.817834 O    1 RES 0.0000
  1650 O1650      6.415612    14.554117    21.525166 O    1 RES 0.0000
  1651 O1651      6.755888     1.382617     4.817834 O    1 RES 0.0000
  1652 O1652      6.755888     1.382617    31.160834 O    1 RES 0.0000
  1653 O1653      6.755888    27.725617     4.817834 O    1 RES 0.0000
  1654 O1654      6.755888    27.725617    31.160834 O    1 RES 0.0000
  1655 O1655      6.415612    11.788883     4.817834 O    1 RES 0.0000
  1656 O1656      6.415612    11.788883    31.160834 O    1 RES 0.0000
  1657 O1657      6.755889    -1.382617    -4.817834 O    1 RES 0.0000
  1658 O1658      6.755889    -1.382617    21.525166 O    1 RES 0.0000
  1659 O1659      6.755889    24.960383    -4.817834 O    1 RES 0.0000
  1660 O1660      6.755889    24.960383    21.525166 O    1 RES 0.0000
  1661 O1661      8.342713    19.936366    -1.381802 O    1 RES 0.0000
  1662 O1662      8.342713    19.936366    24.961198 O    1 RES 0.0000
  1663 O1663      4.828788    19.578133    -1.381802 O    1 RES 0.0000
  1664 O1664      4.828788    19.578133    24.961198 O    1 RES 0.0000
  1665 O1665     31.171788    19.578133    -1.381802 O    1 RES 0.0000
  1666 O1666     31.171788    19.578133    24.961198 O    1 RES 0.0000
  1667 O1667      4.828788     6.764867     1.381802 O    1 RES 0.0000
  1668 O1668      4.828788     6.764867    27.724802 O    1 RES 0.0000
  1669 O1669     31.171788     6.764867     1.381802 O    1 RES 0.0000
  1670 O1670     31.171788     6.764867    27.724802 O    1 RES 0.0000
  1671 O1671      8.342713     6.406634     1.381802 O    1 RES 0.0000
  1672 O1672      8.342713     6.406634    27.724802 O    1 RES 0.0000
  1673 O1673     11.813306     4.857028     6.409744 O    1 RES 0.0000
  1674 O1674     11.813306    31.200028     6.409744 O    1 RES 0.0000
  1675 O1675     11.813306    -4.857027    19.933256 O    1 RES 0.0000
  1676 O1676     11.813306    21.485973    19.933256 O    1 RES 0.0000
  1677 O1677      1.358194     8.314472     6.409744 O    1 RES 0.0000
  1678 O1678     27.701194     8.314472     6.409744 O    1 RES 0.0000
  1679 O1679      1.358194    18.028528    19.933256 O    1 RES 0.0000
  1680 O1680     27.701194    18.028528    19.933256 O    1 RES 0.0000
  1681 F1681     16.181157     3.010477    20.016196 F    1 RES 0.0000
  1682 F1682     16.181157    29.353477    20.016196 F    1 RES 0.0000
  1683 F1683     -3.009657    16.181977     6.326804 F    1 RES 0.0000
  1684 F1684     23.333343    16.181977     6.326804 F    1 RES 0.0000
  1685 F1685     -3.009657    10.161023    20.016196 F    1 RES 0.0000
  1686 F1686     23.333343    10.161023    20.016196 F    1 RES 0.0000
  1687 F1687     16.181157    -3.010477     6.326803 F    1 RES 0.0000
  1688 F1688     16.181157    23.332523     6.326803 F    1 RES 0.0000
  1689 F1689     20.016196    10.161023     3.009657 F    1 RES 0.0000
  1690 F1690     20.016196    10.161023    29.352657 F    1 RES 0.0000
  1691 F1691     19.498304    -3.010477    -3.009657 F    1 RES 0.0000
  1692 F1692     19.498304    -3.010477    23.333343 F    1 RES 0.0000
  1693 F1693     19.498304    23.332523    -3.009657 F    1 RES 0.0000
  1694 F1694     19.498304    23.332523    23.333343 F    1 RES 0.0000
  1695 F1695     20.016197    16.181977    -3.009657 F    1 RES 0.0000
  1696 F1696     20.016197    16.181977    23.333343 F    1 RES 0.0000
  1697 F1697     19.498304     3.010477     3.009657 F    1 RES 0.0000
  1698 F1698     19.498304     3.010477    29.352657 F    1 RES 0.0000
  1699 F1699     19.498304    29.353477     3.009657 F    1 RES 0.0000
  1700 F1700     19.498304    29.353477    29.352657 F    1 RES 0.0000
  1701 F1701     16.181157    16.181977     6.844696 F    1 RES 0.0000
  1702 F1702     -3.009657     3.010477    19.498304 F    1 RES 0.0000
  1703 F1703     -3.009657    29.353477    19.498304 F    1 RES 0.0000
  1704 F1704     23.333343     3.010477    19.498304 F    1 RES 0.0000
  1705 F1705     23.333343    29.353477    19.498304 F    1 RES 0.0000
  1706 F1706     -3.009657    -3.010477     6.844696 F    1 RES 0.0000
  1707 F1707     -3.009657    23.332523     6.844696 F    1 RES 0.0000
  1708 F1708     23.333343    -3.010477     6.844696 F    1 RES 0.0000
  1709 F1709     23.333343    23.332523     6.844696 F    1 RES 0.0000
  1710 F1710     16.181157    10.161023    19.498303 F    1 RES 0.0000
  1711 F1711     20.016196    -3.010477    16.181157 F    1 RES 0.0000
  1712 F1712     20.016196    23.332523    16.181157 F    1 RES 0.0000
  1713 F1713     19.498304    10.161023    10.161843 F    1 RES 0.0000
  1714 F1714     20.016197     3.010477    10.161843 F    1 RES 0.0000
  1715 F1715     20.016197    29.353477    10.161843 F    1 RES 0.0000
  1716 F1716     19.498304    16.181977    16.181157 F    1 RES 0.0000
  1717 F1717      3.009657     3.010477     6.844696 F    1 RES 0.0000
  1718 F1718      3.009657    29.353477     6.844696 F    1 RES 0.0000
  1719 F1719     29.352657     3.010477     6.844696 F    1 RES 0.0000
  1720 F1720     29.352657    29.353477     6.844696 F    1 RES 0.0000
  1721 F1721     10.161843    16.181977    19.498304 F    1 RES 0.0000
  1722 F1722     10.161843    10.161023     6.844696 F    1 RES 0.0000
  1723 F1723      3.009657    -3.010477    19.498303 F    1 RES 0.0000
  1724 F1724      3.009657    23.332523    19.498303 F    1 RES 0.0000
  1725 F1725     29.352657    -3.010477    19.498303 F    1 RES 0.0000
  1726 F1726     29.352657    23.332523    19.498303 F    1 RES 0.0000
  1727 F1727      6.844696    10.161023    16.181157 F    1 RES 0.0000
  1728 F1728      6.326804    -3.010477    10.161843 F    1 RES 0.0000
  1729 F1729      6.326804    23.332523    10.161843 F    1 RES 0.0000
  1730 F1730      6.844697    16.181977    10.161843 F    1 RES 0.0000
  1731 F1731      6.326804     3.010477    16.181157 F    1 RES 0.0000
  1732 F1732      6.326804    29.353477    16.181157 F    1 RES 0.0000
  1733 F1733      3.009657    16.181977    20.016196 F    1 RES 0.0000
  1734 F1734     29.352657    16.181977    20.016196 F    1 RES 0.0000
  1735 F1735     10.161843     3.010477     6.326804 F    1 RES 0.0000
  1736 F1736     10.161843    29.353477     6.326804 F    1 RES 0.0000
  1737 F1737     10.161843    -3.010477    20.016196 F    1 RES 0.0000
  1738 F1738     10.161843    23.332523    20.016196 F    1 RES 0.0000
  1739 F1739      3.009657    10.161023     6.326803 F    1 RES 0.0000
  1740 F1740     29.352657    10.161023     6.326803 F    1 RES 0.0000
  1741 F1741      6.844696    -3.010477     3.009657 F    1 RES 0.0000
  1742 F1742      6.844696    -3.010477    29.352657 F    1 RES 0.0000
  1743 F1743      6.844696    23.332523     3.009657 F    1 RES 0.0000
  1744 F1744      6.844696    23.332523    29.352657 F    1 RES 0.0000
  1745 F1745      6.326804    10.161023    -3.009657 F    1 RES 0.0000
  1746 F1746      6.326804    10.161023    23.333343 F    1 RES 0.0000
  1747 F1747      6.844697     3.010477    -3.009657 F    1 RES 0.0000
  1748 F1748      6.844697     3.010477    23.333343 F    1 RES 0.0000
  1749 F1749      6.844697    29.353477    -3.009657 F    1 RES 0.0000
  1750 F1750      6.844697    29.353477    23.333343 F    1 RES 0.0000
  1751 F1751      6.326804    16.181977     3.009657 F    1 RES 0.0000
  1752 F1752      6.326804    16.181977    29.352657 F    1 RES 0.0000
@<TRIPOS>BOND
     1      1   1249 1
     2      1   1315 1
     3      1   1399 1
     4      1   1444 1
     5      2   1250 1
     6      2   1316 1
     7      2   1400 1
     8      2   1445 1
     9      3   1251 1
    10      3   1313 1
    11      4   1252 1
    12      4   1314 1
    13      4   1401 1
    14      4   1443 1
    15      5   1382 1
    16      5   1427 1
    17      7   1383 1
    18      7   1428 1
    19      9   1289 1
    20      9   1351 1
    21      9   1384 1
    22      9   1429 1
    23     10   1290 1
    24     10   1352 1
    25     11   1291 1
    26     11   1353 1
    27     11   1385 1
    28     11   1430 1
    29     12   1292 1
    30     12   1354 1
    31     13   1255 1
    32     13   1317 1
    33     13   1402 1
    34     13   1447 1
    35     14   1256 1
    36     14   1318 1
    37     14   1403 1
    38     14   1448 1
    39     15   1257 1
    40     15   1464 1
    41     15   1507 1
    42     15   1627 1
    43     16   1258 1
    44     16   1628 1
    45     17   1311 1
    46     17   1431 1
    47     17   1477 1
    48     17   1677 1
    49     18   1312 1
    50     18   1432 1
    51     18   1478 1
    52     18   1678 1
    53     19   1261 1
    54     19   1633 1
    55     20   1262 1
    56     20   1455 1
    57     20   1503 1
    58     20   1634 1
    59     22   1456 1
    60     22   1504 1
    61     23   1263 1
    62     23   1635 1
    63     24   1264 1
    64     24   1457 1
    65     24   1505 1
    66     24   1636 1
    67     26   1458 1
    68     26   1506 1
    69     27   1371 1
    70     27   1391 1
    71     27   1521 1
    72     27   1609 1
    73     28   1372 1
    74     28   1392 1
    75     28   1522 1
    76     28   1610 1
    77     29   1269 1
    78     29   1303 1
    79     29   1337 1
    80     29   1363 1
    81     30   1270 1
    82     30   1304 1
    83     30   1338 1
    84     30   1364 1
    85     31   1408 1
    86     31   1453 1
    87     32   1395 1
    88     32   1409 1
    89     32   1437 1
    90     32   1454 1
    91     33   1275 1
    92     33   1293 1
    93     33   1343 1
    94     33   1361 1
    95     34   1276 1
    96     34   1294 1
    97     34   1344 1
    98     34   1362 1
    99     35   1295 1
   100     35   1357 1
   101     36   1296 1
   102     36   1358 1
   103     39   1277 1
   104     39   1297 1
   105     39   1339 1
   106     39   1359 1
   107     40   1278 1
   108     40   1298 1
   109     40   1340 1
   110     40   1360 1
   111     41   1279 1
   112     41   1341 1
   113     42   1280 1
   114     42   1342 1
   115     43   1281 1
   116     43   1349 1
   117     43   1377 1
   118     43   1425 1
   119     44   1282 1
   120     44   1350 1
   121     46   1378 1
   122     46   1421 1
   123     48   1379 1
   124     48   1422 1
   125     49   1283 1
   126     49   1345 1
   127     50   1284 1
   128     50   1346 1
   129     50   1380 1
   130     50   1423 1
   131     51   1285 1
   132     51   1347 1
   133     52   1286 1
   134     52   1348 1
   135     52   1381 1
   136     52   1424 1
   137     53   1253 1
   138     53   1319 1
   139     54   1254 1
   140     54   1320 1
   141     54   1404 1
   142     54   1446 1
   143     55   1287 1
   144     55   1355 1
   145     56   1288 1
   146     56   1356 1
   147     56   1386 1
   148     56   1426 1
   149     57   1375 1
   150     57   1387 1
   151     57   1520 1
   152     57   1613 1
   153     58   1376 1
   154     58   1614 1
   155     60   1417 1
   156     60   1545 1
   157     61   1321 1
   158     61   1565 1
   159     62   1322 1
   160     62   1418 1
   161     62   1546 1
   162     62   1566 1
   163     64   1419 1
   164     64   1547 1
   165     65   1323 1
   166     65   1567 1
   167     66   1324 1
   168     66   1420 1
   169     66   1548 1
   170     66   1568 1
   171     67   1369 1
   172     67   1389 1
   173     67   1523 1
   174     67   1611 1
   175     68   1370 1
   176     68   1390 1
   177     68   1524 1
   178     68   1612 1
   179     69   1459 1
   180     69   1499 1
   181     71   1265 1
   182     71   1460 1
   183     71   1500 1
   184     71   1629 1
   185     72   1266 1
   186     72   1630 1
   187     73   1461 1
   188     73   1501 1
   189     75   1267 1
   190     75   1462 1
   191     75   1502 1
   192     75   1631 1
   193     76   1268 1
   194     76   1632 1
   195     77   1393 1
   196     77   1410 1
   197     77   1438 1
   198     77   1452 1
   199     78   1394 1
   200     78   1439 1
   201     81   1299 1
   202     81   1365 1
   203     82   1300 1
   204     82   1366 1
   205     83   1271 1
   206     83   1333 1
   207     84   1272 1
   208     84   1334 1
   209     85   1273 1
   210     85   1301 1
   211     85   1335 1
   212     85   1367 1
   213     86   1274 1
   214     86   1302 1
   215     86   1336 1
   216     86   1368 1
   217     87   1396 1
   218     87   1441 1
   219     88   1397 1
   220     88   1405 1
   221     88   1442 1
   222     88   1451 1
   223     89   1406 1
   224     89   1449 1
   225     90   1398 1
   226     90   1407 1
   227     90   1440 1
   228     90   1450 1
   229     91   1465 1
   230     91   1510 1
   231     91   1585 1
   232     91   1651 1
   233     92   1586 1
   234     92   1652 1
   235     93   1466 1
   236     93   1511 1
   237     93   1587 1
   238     93   1653 1
   239     94   1588 1
   240     94   1654 1
   241     95   1467 1
   242     95   1512 1
   243     97   1468 1
   244     97   1513 1
   245     99   1589 1
   246     99   1649 1
   247    100   1469 1
   248    100   1509 1
   249    100   1590 1
   250    100   1650 1
   251    101   1491 1
   252    101   1534 1
   253    101   1557 1
   254    101   1623 1
   255    102   1492 1
   256    102   1535 1
   257    102   1558 1
   258    102   1624 1
   259    103   1591 1
   260    103   1657 1
   261    104   1471 1
   262    104   1514 1
   263    104   1592 1
   264    104   1658 1
   265    105   1593 1
   266    105   1659 1
   267    106   1472 1
   268    106   1515 1
   269    106   1594 1
   270    106   1660 1
   271    108   1473 1
   272    108   1516 1
   273    110   1474 1
   274    110   1517 1
   275    111   1309 1
   276    111   1433 1
   277    111   1475 1
   278    111   1679 1
   279    112   1310 1
   280    112   1434 1
   281    112   1476 1
   282    112   1680 1
   283    113   1259 1
   284    113   1625 1
   285    114   1260 1
   286    114   1463 1
   287    114   1508 1
   288    114   1626 1
   289    115   1307 1
   290    115   1436 1
   291    115   1479 1
   292    115   1673 1
   293    116   1308 1
   294    116   1674 1
   295    117   1329 1
   296    117   1411 1
   297    117   1544 1
   298    117   1571 1
   299    118   1330 1
   300    118   1572 1
   301    119   1481 1
   302    119   1497 1
   303    119   1527 1
   304    119   1540 1
   305    120   1498 1
   306    120   1541 1
   307    121   1577 1
   308    121   1603 1
   309    121   1637 1
   310    121   1671 1
   311    122   1578 1
   312    122   1604 1
   313    122   1638 1
   314    122   1672 1
   315    123   1484 1
   316    123   1493 1
   317    123   1530 1
   318    123   1538 1
   319    124   1494 1
   320    124   1539 1
   321    125   1485 1
   322    125   1495 1
   323    125   1528 1
   324    125   1537 1
   325    126   1486 1
   326    126   1529 1
   327    127   1487 1
   328    127   1533 1
   329    127   1553 1
   330    127   1619 1
   331    128   1554 1
   332    128   1620 1
   333    129   1488 1
   334    129   1531 1
   335    129   1555 1
   336    129   1617 1
   337    130   1489 1
   338    130   1532 1
   339    130   1556 1
   340    130   1618 1
   341    131   1470 1
   342    131   1518 1
   343    131   1595 1
   344    131   1655 1
   345    132   1596 1
   346    132   1656 1
   347    133   1490 1
   348    133   1536 1
   349    133   1559 1
   350    133   1621 1
   351    134   1560 1
   352    134   1622 1
   353    135   1325 1
   354    135   1413 1
   355    135   1549 1
   356    135   1561 1
   357    136   1326 1
   358    136   1562 1
   359    137   1414 1
   360    137   1550 1
   361    139   1327 1
   362    139   1415 1
   363    139   1551 1
   364    139   1563 1
   365    140   1328 1
   366    140   1564 1
   367    141   1416 1
   368    141   1552 1
   369    143   1373 1
   370    143   1615 1
   371    144   1374 1
   372    144   1388 1
   373    144   1519 1
   374    144   1616 1
   375    145   1331 1
   376    145   1569 1
   377    146   1332 1
   378    146   1412 1
   379    146   1543 1
   380    146   1570 1
   381    147   1305 1
   382    147   1675 1
   383    148   1306 1
   384    148   1435 1
   385    148   1480 1
   386    148   1676 1
   387    149   1573 1
   388    149   1605 1
   389    149   1639 1
   390    149   1667 1
   391    150   1574 1
   392    150   1606 1
   393    150   1640 1
   394    150   1668 1
   395    151   1575 1
   396    151   1641 1
   397    152   1576 1
   398    152   1642 1
   399    153   1607 1
   400    153   1669 1
   401    154   1608 1
   402    154   1670 1
   403    157   1482 1
   404    157   1525 1
   405    158   1483 1
   406    158   1496 1
   407    158   1526 1
   408    158   1542 1
   409    159   1579 1
   410    159   1645 1
   411    160   1580 1
   412    160   1646 1
   413    161   1581 1
   414    161   1597 1
   415    161   1647 1
   416    161   1663 1
   417    162   1582 1
   418    162   1598 1
   419    162   1648 1
   420    162   1664 1
   421    165   1599 1
   422    165   1665 1
   423    166   1600 1
   424    166   1666 1
   425    167   1583 1
   426    167   1601 1
   427    167   1643 1
   428    167   1661 1
   429    168   1584 1
   430    168   1602 1
   431    168   1644 1
   432    168   1662 1
   433    169    523 1
   434    170    524 1
   435    171    525 1
   436    172    526 1
   437    173    529 1
   438    174    530 1
   439    175    531 1
   440    176    532 1
   441    177    533 1
   442    178    534 1
   443    179    535 1
   444    180    536 1
   445    181    539 1
   446    182    540 1
   447    183    541 1
   448    184    542 1
   449    185    543 1
   450    186    544 1
   451    187    547 1
   452    188    548 1
   453    189    549 1
   454    190    550 1
   455    191    551 1
   456    192    552 1
   457    193    569 1
   458    194    570 1
   459    195    573 1
   460    196    574 1
   461    197    575 1
   462    198    576 1
   463    199    577 1
   464    200    578 1
   465    201    579 1
   466    202    580 1
   467    203    583 1
   468    204    584 1
   469    205    586 1
   470    206    588 1
   471    207    589 1
   472    208    591 1
   473    209    594 1
   474    210    596 1
   475    211    597 1
   476    212    599 1
   477    213    731 1
   478    214    732 1
   479    215    734 1
   480    216    736 1
   481    217    737 1
   482    218    739 1
   483    219    743 1
   484    220    744 1
   485    221    745 1
   486    222    748 1
   487    223    749 1
   488    224    750 1
   489    225    761 1
   490    226    763 1
   491    227    765 1
   492    228    766 1
   493    229    768 1
   494    230    770 1
   495    231    771 1
   496    232    772 1
   497    233    773 1
   498    234    774 1
   499    235    775 1
   500    236    776 1
   501    237    777 1
   502    238    778 1
   503    239    779 1
   504    240    780 1
   505    241    912 1
   506    242    914 1
   507    243    915 1
   508    244    917 1
   509    245    919 1
   510    246    920 1
   511    247    921 1
   512    248    922 1
   513    249    923 1
   514    250    926 1
   515    251    927 1
   516    252    928 1
   517    253    941 1
   518    254    943 1
   519    255    945 1
   520    256    946 1
   521    257    948 1
   522    258    950 1
   523    259    951 1
   524    260    952 1
   525    261    953 1
   526    262    954 1
   527    263    955 1
   528    264    956 1
   529    265    957 1
   530    266    958 1
   531    267    959 1
   532    268    960 1
   533    269   1169 1
   534    270   1170 1
   535    271   1171 1
   536    272   1172 1
   537    273   1173 1
   538    274   1174 1
   539    275   1175 1
   540    276   1176 1
   541    277   1179 1
   542    278   1180 1
   543    279   1181 1
   544    280   1182 1
   545    281   1185 1
   546    282   1186 1
   547    283   1187 1
   548    284   1188 1
   549    285   1189 1
   550    286   1190 1
   551    287   1193 1
   552    288   1194 1
   553    289   1195 1
   554    290   1196 1
   555    291   1197 1
   556    292   1198 1
   557    293   1217 1
   558    294   1218 1
   559    295   1219 1
   560    296   1220 1
   561    297   1223 1
   562    298   1224 1
   563    299   1225 1
   564    300   1226 1
   565    301   1229 1
   566    302   1230 1
   567    303   1231 1
   568    304   1232 1
   569    305   1234 1
   570    306   1236 1
   571    307   1237 1
   572    308   1239 1
   573    309   1242 1
   574    310   1244 1
   575    311   1245 1
   576    312   1247 1
   577    313    409 1
   578    313   1345 1
   579    314    410 1
   580    314   1249 1
   581    314   1346 1
   582    315    411 1
   583    315   1347 1
   584    316    412 1
   585    316   1250 1
   586    316   1348 1
   587    317    413 1
   588    317   1251 1
   589    318    414 1
   590    319    415 1
   591    319   1252 1
   592    319   1349 1
   593    320    416 1
   594    320   1350 1
   595    321    417 1
   596    322    418 1
   597    322   1253 1
   598    323    419 1
   599    323   1355 1
   600    324    420 1
   601    324   1254 1
   602    324   1356 1
   603    325    421 1
   604    325   1255 1
   605    325   1351 1
   606    326    422 1
   607    326   1352 1
   608    327    423 1
   609    327   1256 1
   610    327   1353 1
   611    328    424 1
   612    328   1354 1
   613    329    425 1
   614    329   1373 1
   615    330    426 1
   616    331    427 1
   617    331   1257 1
   618    331   1374 1
   619    332    428 1
   620    332   1258 1
   621    333    429 1
   622    333   1259 1
   623    334    430 1
   624    334   1260 1
   625    334   1375 1
   626    335    431 1
   627    336    432 1
   628    336   1376 1
   629    337    433 1
   630    337   1261 1
   631    338    434 1
   632    338   1262 1
   633    338   1371 1
   634    339    435 1
   635    339   1263 1
   636    340    436 1
   637    340   1264 1
   638    340   1372 1
   639    341    437 1
   640    341   1265 1
   641    341   1369 1
   642    342    438 1
   643    342   1266 1
   644    343    439 1
   645    343   1267 1
   646    343   1370 1
   647    344    440 1
   648    344   1268 1
   649    345    441 1
   650    345   1365 1
   651    346    442 1
   652    346   1366 1
   653    347    443 1
   654    347   1269 1
   655    347   1367 1
   656    348    444 1
   657    348   1270 1
   658    348   1368 1
   659    349    445 1
   660    349   1271 1
   661    350    446 1
   662    350   1272 1
   663    351    447 1
   664    351   1273 1
   665    351   1363 1
   666    352    448 1
   667    352   1274 1
   668    352   1364 1
   669    353    449 1
   670    353   1357 1
   671    354    450 1
   672    354   1358 1
   673    355    451 1
   674    355   1275 1
   675    355   1359 1
   676    356    452 1
   677    356   1276 1
   678    356   1360 1
   679    357    453 1
   680    357   1277 1
   681    357   1361 1
   682    358    454 1
   683    358   1278 1
   684    358   1362 1
   685    359    455 1
   686    359   1279 1
   687    360    456 1
   688    360   1280 1
   689    361    457 1
   690    361   1313 1
   691    362    458 1
   692    363    459 1
   693    363   1281 1
   694    363   1314 1
   695    364    460 1
   696    364   1282 1
   697    365    461 1
   698    365   1283 1
   699    366    462 1
   700    366   1284 1
   701    366   1315 1
   702    367    463 1
   703    367   1285 1
   704    368    464 1
   705    368   1286 1
   706    368   1316 1
   707    369    465 1
   708    370    466 1
   709    370   1319 1
   710    371    467 1
   711    371   1287 1
   712    372    468 1
   713    372   1288 1
   714    372   1320 1
   715    373    469 1
   716    373   1289 1
   717    373   1317 1
   718    374    470 1
   719    374   1290 1
   720    375    471 1
   721    375   1291 1
   722    375   1318 1
   723    376    472 1
   724    376   1292 1
   725    377    473 1
   726    377   1293 1
   727    377   1339 1
   728    378    474 1
   729    378   1294 1
   730    378   1340 1
   731    379    475 1
   732    379   1341 1
   733    380    476 1
   734    380   1342 1
   735    381    477 1
   736    381   1295 1
   737    382    478 1
   738    382   1296 1
   739    383    479 1
   740    383   1297 1
   741    383   1343 1
   742    384    480 1
   743    384   1298 1
   744    384   1344 1
   745    385    481 1
   746    385   1299 1
   747    386    482 1
   748    386   1300 1
   749    387    483 1
   750    387   1301 1
   751    387   1337 1
   752    388    484 1
   753    388   1302 1
   754    388   1338 1
   755    389    485 1
   756    389   1333 1
   757    390    486 1
   758    390   1334 1
   759    391    487 1
   760    391   1303 1
   761    391   1335 1
   762    392    488 1
   763    392   1304 1
   764    392   1336 1
   765    393    489 1
   766    394    490 1
   767    394   1305 1
   768    395    491 1
   769    395   1331 1
   770    396    492 1
   771    396   1306 1
   772    396   1332 1
   773    397    493 1
   774    397   1307 1
   775    397   1329 1
   776    398    494 1
   777    398   1330 1
   778    399    495 1
   779    399   1308 1
   780    400    496 1
   781    401    497 1
   782    401   1321 1
   783    402    498 1
   784    402   1309 1
   785    402   1322 1
   786    403    499 1
   787    403   1323 1
   788    404    500 1
   789    404   1310 1
   790    404   1324 1
   791    405    501 1
   792    405   1311 1
   793    405   1325 1
   794    406    502 1
   795    406   1326 1
   796    407    503 1
   797    407   1312 1
   798    407   1327 1
   799    408    504 1
   800    408   1328 1
   801    409    505 1
   802    409    549 1
   803    410    506 1
   804    410    550 1
   805    411    507 1
   806    411    551 1
   807    412    508 1
   808    412    552 1
   809    413    509 1
   810    413    537 1
   811    414    510 1
   812    414    538 1
   813    415    511 1
   814    415    539 1
   815    416    512 1
   816    416    540 1
   817    417    513 1
   818    417    545 1
   819    418    514 1
   820    418    546 1
   821    419    515 1
   822    419    547 1
   823    420    516 1
   824    420    548 1
   825    421    517 1
   826    421    541 1
   827    422    518 1
   828    422    542 1
   829    423    519 1
   830    423    543 1
   831    424    520 1
   832    424    544 1
   833    425    517 1
   834    425    521 1
   835    426    518 1
   836    426    522 1
   837    427    519 1
   838    427    523 1
   839    428    520 1
   840    428    524 1
   841    429    505 1
   842    429    525 1
   843    430    506 1
   844    430    526 1
   845    431    507 1
   846    431    527 1
   847    432    508 1
   848    432    528 1
   849    433    513 1
   850    433    529 1
   851    434    514 1
   852    434    530 1
   853    435    515 1
   854    435    531 1
   855    436    516 1
   856    436    532 1
   857    437    509 1
   858    437    533 1
   859    438    510 1
   860    438    534 1
   861    439    511 1
   862    439    535 1
   863    440    512 1
   864    440    536 1
   865    441    533 1
   866    441    537 1
   867    442    534 1
   868    442    538 1
   869    443    535 1
   870    443    539 1
   871    444    536 1
   872    444    540 1
   873    445    521 1
   874    445    541 1
   875    446    522 1
   876    446    542 1
   877    447    523 1
   878    447    543 1
   879    448    524 1
   880    448    544 1
   881    449    529 1
   882    449    545 1
   883    450    530 1
   884    450    546 1
   885    451    531 1
   886    451    547 1
   887    452    532 1
   888    452    548 1
   889    453    525 1
   890    453    549 1
   891    454    526 1
   892    454    550 1
   893    455    527 1
   894    455    551 1
   895    456    528 1
   896    456    552 1
   897    457    553 1
   898    457    597 1
   899    458    554 1
   900    458    598 1
   901    459    555 1
   902    459    599 1
   903    460    556 1
   904    460    600 1
   905    461    557 1
   906    461    585 1
   907    462    558 1
   908    462    586 1
   909    463    559 1
   910    463    587 1
   911    464    560 1
   912    464    588 1
   913    465    561 1
   914    465    593 1
   915    466    562 1
   916    466    594 1
   917    467    563 1
   918    467    595 1
   919    468    564 1
   920    468    596 1
   921    469    565 1
   922    469    589 1
   923    470    566 1
   924    470    590 1
   925    471    567 1
   926    471    591 1
   927    472    568 1
   928    472    592 1
   929    473    565 1
   930    473    569 1
   931    474    566 1
   932    474    570 1
   933    475    567 1
   934    475    571 1
   935    476    568 1
   936    476    572 1
   937    477    553 1
   938    477    573 1
   939    478    554 1
   940    478    574 1
   941    479    555 1
   942    479    575 1
   943    480    556 1
   944    480    576 1
   945    481    561 1
   946    481    577 1
   947    482    562 1
   948    482    578 1
   949    483    563 1
   950    483    579 1
   951    484    564 1
   952    484    580 1
   953    485    557 1
   954    485    581 1
   955    486    558 1
   956    486    582 1
   957    487    559 1
   958    487    583 1
   959    488    560 1
   960    488    584 1
   961    489    581 1
   962    489    585 1
   963    490    582 1
   964    490    586 1
   965    491    583 1
   966    491    587 1
   967    492    584 1
   968    492    588 1
   969    493    569 1
   970    493    589 1
   971    494    570 1
   972    494    590 1
   973    495    571 1
   974    495    591 1
   975    496    572 1
   976    496    592 1
   977    497    577 1
   978    497    593 1
   979    498    578 1
   980    498    594 1
   981    499    579 1
   982    499    595 1
   983    500    580 1
   984    500    596 1
   985    501    573 1
   986    501    597 1
   987    502    574 1
   988    502    598 1
   989    503    575 1
   990    503    599 1
   991    504    576 1
   992    504    600 1
   993    506   1681 1
   994    508   1682 1
   995    509   1683 1
   996    511   1684 1
   997    514   1685 1
   998    516   1686 1
   999    517   1687 1
  1000    519   1688 1
  1001    555   1689 1
  1002    556   1690 1
  1003    557   1691 1
  1004    558   1692 1
  1005    559   1693 1
  1006    560   1694 1
  1007    563   1695 1
  1008    564   1696 1
  1009    565   1697 1
  1010    566   1698 1
  1011    567   1699 1
  1012    568   1700 1
  1013    601    661 1
  1014    601   1377 1
  1015    601   1443 1
  1016    602    662 1
  1017    602   1378 1
  1018    603    663 1
  1019    603   1379 1
  1020    604    664 1
  1021    604   1380 1
  1022    604   1444 1
  1023    605    665 1
  1024    605   1381 1
  1025    605   1445 1
  1026    606    666 1
  1027    606   1382 1
  1028    607    667 1
  1029    607   1383 1
  1030    608    668 1
  1031    608   1384 1
  1032    608   1447 1
  1033    609    669 1
  1034    609   1385 1
  1035    609   1448 1
  1036    610    670 1
  1037    610   1386 1
  1038    610   1446 1
  1039    611    671 1
  1040    611   1387 1
  1041    611   1463 1
  1042    612    672 1
  1043    612   1388 1
  1044    612   1464 1
  1045    613    673 1
  1046    613   1459 1
  1047    614    674 1
  1048    614   1389 1
  1049    614   1460 1
  1050    615    675 1
  1051    615   1461 1
  1052    616    676 1
  1053    616   1390 1
  1054    616   1462 1
  1055    617    677 1
  1056    617   1391 1
  1057    617   1455 1
  1058    618    678 1
  1059    618   1456 1
  1060    619    679 1
  1061    619   1392 1
  1062    619   1457 1
  1063    620    680 1
  1064    620   1458 1
  1065    621    681 1
  1066    621   1453 1
  1067    622    682 1
  1068    623    683 1
  1069    623   1393 1
  1070    623   1454 1
  1071    624    684 1
  1072    624   1394 1
  1073    625    685 1
  1074    625   1395 1
  1075    625   1452 1
  1076    626    686 1
  1077    627    687 1
  1078    627   1449 1
  1079    628    688 1
  1080    628   1396 1
  1081    629    689 1
  1082    629   1397 1
  1083    629   1450 1
  1084    630    690 1
  1085    630   1398 1
  1086    630   1451 1
  1087    631    691 1
  1088    631   1421 1
  1089    632    692 1
  1090    632   1422 1
  1091    633    693 1
  1092    633   1399 1
  1093    633   1423 1
  1094    634    694 1
  1095    634   1400 1
  1096    634   1424 1
  1097    635    695 1
  1098    635   1401 1
  1099    635   1425 1
  1100    636    696 1
  1101    636   1427 1
  1102    637    697 1
  1103    637   1428 1
  1104    638    698 1
  1105    638   1402 1
  1106    638   1429 1
  1107    639    699 1
  1108    639   1403 1
  1109    639   1430 1
  1110    640    700 1
  1111    640   1404 1
  1112    640   1426 1
  1113    641    701 1
  1114    641   1405 1
  1115    641   1440 1
  1116    642    702 1
  1117    643    703 1
  1118    643   1406 1
  1119    644    704 1
  1120    644   1441 1
  1121    645    705 1
  1122    645   1407 1
  1123    645   1442 1
  1124    646    706 1
  1125    646   1408 1
  1126    647    707 1
  1127    648    708 1
  1128    648   1409 1
  1129    648   1438 1
  1130    649    709 1
  1131    649   1439 1
  1132    650    710 1
  1133    650   1410 1
  1134    650   1437 1
  1135    651    711 1
  1136    651   1411 1
  1137    651   1436 1
  1138    652    712 1
  1139    652   1412 1
  1140    652   1435 1
  1141    653    713 1
  1142    653   1413 1
  1143    653   1431 1
  1144    654    714 1
  1145    654   1414 1
  1146    655    715 1
  1147    655   1415 1
  1148    655   1432 1
  1149    656    716 1
  1150    656   1416 1
  1151    657    717 1
  1152    657   1417 1
  1153    658    718 1
  1154    658   1418 1
  1155    658   1433 1
  1156    659    719 1
  1157    659   1419 1
  1158    660    720 1
  1159    660   1420 1
  1160    660   1434 1
  1161    661    721 1
  1162    661    750 1
  1163    662    722 1
  1164    662    741 1
  1165    663    723 1
  1166    663    742 1
  1167    664    724 1
  1168    664    743 1
  1169    665    725 1
  1170    665    744 1
  1171    666    726 1
  1172    666    746 1
  1173    667    727 1
  1174    667    747 1
  1175    668    728 1
  1176    668    748 1
  1177    669    729 1
  1178    669    749 1
  1179    670    730 1
  1180    670    745 1
  1181    671    730 1
  1182    671    731 1
  1183    672    721 1
  1184    672    732 1
  1185    673    726 1
  1186    673    733 1
  1187    674    727 1
  1188    674    734 1
  1189    675    728 1
  1190    675    735 1
  1191    676    729 1
  1192    676    736 1
  1193    677    722 1
  1194    677    737 1
  1195    678    723 1
  1196    678    738 1
  1197    679    724 1
  1198    679    739 1
  1199    680    725 1
  1200    680    740 1
  1201    681    737 1
  1202    681    741 1
  1203    682    738 1
  1204    682    742 1
  1205    683    739 1
  1206    683    743 1
  1207    684    740 1
  1208    684    744 1
  1209    685    731 1
  1210    685    745 1
  1211    686    733 1
  1212    686    746 1
  1213    687    734 1
  1214    687    747 1
  1215    688    735 1
  1216    688    748 1
  1217    689    736 1
  1218    689    749 1
  1219    690    732 1
  1220    690    750 1
  1221    691    751 1
  1222    691    777 1
  1223    692    752 1
  1224    692    778 1
  1225    693    753 1
  1226    693    779 1
  1227    694    754 1
  1228    694    780 1
  1229    695    755 1
  1230    695    771 1
  1231    696    756 1
  1232    696    773 1
  1233    697    757 1
  1234    697    774 1
  1235    698    758 1
  1236    698    775 1
  1237    699    759 1
  1238    699    776 1
  1239    700    760 1
  1240    700    772 1
  1241    701    760 1
  1242    701    761 1
  1243    702    751 1
  1244    702    762 1
  1245    703    752 1
  1246    703    763 1
  1247    704    753 1
  1248    704    764 1
  1249    705    754 1
  1250    705    765 1
  1251    706    756 1
  1252    706    766 1
  1253    707    757 1
  1254    707    767 1
  1255    708    758 1
  1256    708    768 1
  1257    709    759 1
  1258    709    769 1
  1259    710    755 1
  1260    710    770 1
  1261    711    770 1
  1262    711    771 1
  1263    712    761 1
  1264    712    772 1
  1265    713    766 1
  1266    713    773 1
  1267    714    767 1
  1268    714    774 1
  1269    715    768 1
  1270    715    775 1
  1271    716    769 1
  1272    716    776 1
  1273    717    762 1
  1274    717    777 1
  1275    718    763 1
  1276    718    778 1
  1277    719    764 1
  1278    719    779 1
  1279    720    765 1
  1280    720    780 1
  1281    721   1701 1
  1282    722   1702 1
  1283    723   1703 1
  1284    724   1704 1
  1285    725   1705 1
  1286    726   1706 1
  1287    727   1707 1
  1288    728   1708 1
  1289    729   1709 1
  1290    730   1710 1
  1291    753   1711 1
  1292    754   1712 1
  1293    755   1713 1
  1294    758   1714 1
  1295    759   1715 1
  1296    760   1716 1
  1297    781    841 1
  1298    781   1465 1
  1299    781   1531 1
  1300    782    842 1
  1301    782   1466 1
  1302    782   1532 1
  1303    783    843 1
  1304    783   1467 1
  1305    784    844 1
  1306    784   1468 1
  1307    785    845 1
  1308    785   1469 1
  1309    785   1533 1
  1310    786    846 1
  1311    786   1470 1
  1312    786   1536 1
  1313    787    847 1
  1314    787   1471 1
  1315    787   1534 1
  1316    788    848 1
  1317    788   1472 1
  1318    788   1535 1
  1319    789    849 1
  1320    789   1473 1
  1321    790    850 1
  1322    790   1474 1
  1323    791    851 1
  1324    791   1545 1
  1325    792    852 1
  1326    792   1475 1
  1327    792   1546 1
  1328    793    853 1
  1329    793   1547 1
  1330    794    854 1
  1331    794   1476 1
  1332    794   1548 1
  1333    795    855 1
  1334    795   1477 1
  1335    795   1549 1
  1336    796    856 1
  1337    796   1550 1
  1338    797    857 1
  1339    797   1478 1
  1340    797   1551 1
  1341    798    858 1
  1342    798   1552 1
  1343    799    859 1
  1344    799   1479 1
  1345    799   1544 1
  1346    800    860 1
  1347    800   1480 1
  1348    800   1543 1
  1349    801    861 1
  1350    801   1481 1
  1351    801   1542 1
  1352    802    862 1
  1353    802   1482 1
  1354    803    863 1
  1355    803   1483 1
  1356    803   1540 1
  1357    804    864 1
  1358    805    865 1
  1359    805   1541 1
  1360    806    866 1
  1361    806   1484 1
  1362    806   1537 1
  1363    807    867 1
  1364    807   1485 1
  1365    807   1538 1
  1366    808    868 1
  1367    808   1486 1
  1368    809    869 1
  1369    809   1539 1
  1370    810    870 1
  1371    811    871 1
  1372    811   1487 1
  1373    811   1509 1
  1374    812    872 1
  1375    812   1488 1
  1376    812   1510 1
  1377    813    873 1
  1378    813   1489 1
  1379    813   1511 1
  1380    814    874 1
  1381    814   1512 1
  1382    815    875 1
  1383    815   1513 1
  1384    816    876 1
  1385    816   1490 1
  1386    816   1518 1
  1387    817    877 1
  1388    817   1491 1
  1389    817   1514 1
  1390    818    878 1
  1391    818   1492 1
  1392    818   1515 1
  1393    819    879 1
  1394    819   1516 1
  1395    820    880 1
  1396    820   1517 1
  1397    821    881 1
  1398    821   1493 1
  1399    821   1528 1
  1400    822    882 1
  1401    822   1529 1
  1402    823    883 1
  1403    823   1494 1
  1404    824    884 1
  1405    825    885 1
  1406    825   1495 1
  1407    825   1530 1
  1408    826    886 1
  1409    826   1496 1
  1410    826   1527 1
  1411    827    887 1
  1412    827   1525 1
  1413    828    888 1
  1414    828   1497 1
  1415    828   1526 1
  1416    829    889 1
  1417    830    890 1
  1418    830   1498 1
  1419    831    891 1
  1420    831   1499 1
  1421    832    892 1
  1422    832   1500 1
  1423    832   1523 1
  1424    833    893 1
  1425    833   1501 1
  1426    834    894 1
  1427    834   1502 1
  1428    834   1524 1
  1429    835    895 1
  1430    835   1503 1
  1431    835   1521 1
  1432    836    896 1
  1433    836   1504 1
  1434    837    897 1
  1435    837   1505 1
  1436    837   1522 1
  1437    838    898 1
  1438    838   1506 1
  1439    839    899 1
  1440    839   1507 1
  1441    839   1519 1
  1442    840    900 1
  1443    840   1508 1
  1444    840   1520 1
  1445    841    901 1
  1446    841    927 1
  1447    842    902 1
  1448    842    928 1
  1449    843    903 1
  1450    843    929 1
  1451    844    904 1
  1452    844    930 1
  1453    845    905 1
  1454    845    921 1
  1455    846    906 1
  1456    846    926 1
  1457    847    907 1
  1458    847    922 1
  1459    848    908 1
  1460    848    923 1
  1461    849    909 1
  1462    849    924 1
  1463    850    910 1
  1464    850    925 1
  1465    851    907 1
  1466    851    911 1
  1467    852    908 1
  1468    852    912 1
  1469    853    909 1
  1470    853    913 1
  1471    854    910 1
  1472    854    914 1
  1473    855    901 1
  1474    855    915 1
  1475    856    902 1
  1476    856    916 1
  1477    857    903 1
  1478    857    917 1
  1479    858    904 1
  1480    858    918 1
  1481    859    906 1
  1482    859    919 1
  1483    860    905 1
  1484    860    920 1
  1485    861    920 1
  1486    861    921 1
  1487    862    911 1
  1488    862    922 1
  1489    863    912 1
  1490    863    923 1
  1491    864    913 1
  1492    864    924 1
  1493    865    914 1
  1494    865    925 1
  1495    866    919 1
  1496    866    926 1
  1497    867    915 1
  1498    867    927 1
  1499    868    916 1
  1500    868    928 1
  1501    869    917 1
  1502    869    929 1
  1503    870    918 1
  1504    870    930 1
  1505    871    931 1
  1506    871    960 1
  1507    872    932 1
  1508    872    951 1
  1509    873    933 1
  1510    873    952 1
  1511    874    934 1
  1512    874    953 1
  1513    875    935 1
  1514    875    954 1
  1515    876    936 1
  1516    876    959 1
  1517    877    937 1
  1518    877    955 1
  1519    878    938 1
  1520    878    956 1
  1521    879    939 1
  1522    879    957 1
  1523    880    940 1
  1524    880    958 1
  1525    881    937 1
  1526    881    941 1
  1527    882    938 1
  1528    882    942 1
  1529    883    939 1
  1530    883    943 1
  1531    884    940 1
  1532    884    944 1
  1533    885    931 1
  1534    885    945 1
  1535    886    936 1
  1536    886    946 1
  1537    887    932 1
  1538    887    947 1
  1539    888    933 1
  1540    888    948 1
  1541    889    934 1
  1542    889    949 1
  1543    890    935 1
  1544    890    950 1
  1545    891    947 1
  1546    891    951 1
  1547    892    948 1
  1548    892    952 1
  1549    893    949 1
  1550    893    953 1
  1551    894    950 1
  1552    894    954 1
  1553    895    941 1
  1554    895    955 1
  1555    896    942 1
  1556    896    956 1
  1557    897    943 1
  1558    897    957 1
  1559    898    944 1
  1560    898    958 1
  1561    899    946 1
  1562    899    959 1
  1563    900    945 1
  1564    900    960 1
  1565    901   1717 1
  1566    902   1718 1
  1567    903   1719 1
  1568    904   1720 1
  1569    905   1721 1
  1570    906   1722 1
  1571    907   1723 1
  1572    908   1724 1
  1573    909   1725 1
  1574    910   1726 1
  1575    931   1727 1
  1576    932   1728 1
  1577    933   1729 1
  1578    936   1730 1
  1579    937   1731 1
  1580    938   1732 1
  1581    961   1057 1
  1582    961   1649 1
  1583    962   1058 1
  1584    962   1553 1
  1585    962   1650 1
  1586    963   1059 1
  1587    964   1060 1
  1588    964   1554 1
  1589    965   1061 1
  1590    965   1555 1
  1591    965   1651 1
  1592    966   1062 1
  1593    966   1652 1
  1594    967   1063 1
  1595    967   1556 1
  1596    967   1653 1
  1597    968   1064 1
  1598    968   1654 1
  1599    969   1065 1
  1600    969   1657 1
  1601    970   1066 1
  1602    970   1557 1
  1603    970   1658 1
  1604    971   1067 1
  1605    971   1659 1
  1606    972   1068 1
  1607    972   1558 1
  1608    972   1660 1
  1609    973   1069 1
  1610    973   1559 1
  1611    973   1655 1
  1612    974   1070 1
  1613    974   1656 1
  1614    975   1071 1
  1615    975   1560 1
  1616    976   1072 1
  1617    977   1073 1
  1618    977   1561 1
  1619    977   1677 1
  1620    978   1074 1
  1621    978   1562 1
  1622    979   1075 1
  1623    979   1563 1
  1624    979   1678 1
  1625    980   1076 1
  1626    980   1564 1
  1627    981   1077 1
  1628    981   1565 1
  1629    982   1078 1
  1630    982   1566 1
  1631    982   1679 1
  1632    983   1079 1
  1633    983   1567 1
  1634    984   1080 1
  1635    984   1568 1
  1636    984   1680 1
  1637    985   1081 1
  1638    986   1082 1
  1639    986   1675 1
  1640    987   1083 1
  1641    987   1569 1
  1642    988   1084 1
  1643    988   1570 1
  1644    988   1676 1
  1645    989   1085 1
  1646    989   1571 1
  1647    989   1673 1
  1648    990   1086 1
  1649    990   1572 1
  1650    991   1087 1
  1651    991   1674 1
  1652    992   1088 1
  1653    993   1089 1
  1654    993   1573 1
  1655    993   1671 1
  1656    994   1090 1
  1657    994   1574 1
  1658    994   1672 1
  1659    995   1091 1
  1660    995   1575 1
  1661    996   1092 1
  1662    996   1576 1
  1663    997   1093 1
  1664    997   1577 1
  1665    997   1667 1
  1666    998   1094 1
  1667    998   1578 1
  1668    998   1668 1
  1669    999   1095 1
  1670    999   1669 1
  1671   1000   1096 1
  1672   1000   1670 1
  1673   1001   1097 1
  1674   1001   1579 1
  1675   1002   1098 1
  1676   1002   1580 1
  1677   1003   1099 1
  1678   1003   1581 1
  1679   1003   1661 1
  1680   1004   1100 1
  1681   1004   1582 1
  1682   1004   1662 1
  1683   1005   1101 1
  1684   1005   1583 1
  1685   1005   1663 1
  1686   1006   1102 1
  1687   1006   1584 1
  1688   1006   1664 1
  1689   1007   1103 1
  1690   1007   1665 1
  1691   1008   1104 1
  1692   1008   1666 1
  1693   1009   1105 1
  1694   1009   1585 1
  1695   1009   1617 1
  1696   1010   1106 1
  1697   1010   1586 1
  1698   1011   1107 1
  1699   1011   1587 1
  1700   1011   1618 1
  1701   1012   1108 1
  1702   1012   1588 1
  1703   1013   1109 1
  1704   1013   1589 1
  1705   1014   1110 1
  1706   1014   1590 1
  1707   1014   1619 1
  1708   1015   1111 1
  1709   1016   1112 1
  1710   1016   1620 1
  1711   1017   1113 1
  1712   1017   1591 1
  1713   1018   1114 1
  1714   1018   1592 1
  1715   1018   1623 1
  1716   1019   1115 1
  1717   1019   1593 1
  1718   1020   1116 1
  1719   1020   1594 1
  1720   1020   1624 1
  1721   1021   1117 1
  1722   1021   1595 1
  1723   1021   1621 1
  1724   1022   1118 1
  1725   1022   1596 1
  1726   1023   1119 1
  1727   1023   1622 1
  1728   1024   1120 1
  1729   1025   1121 1
  1730   1025   1597 1
  1731   1025   1643 1
  1732   1026   1122 1
  1733   1026   1598 1
  1734   1026   1644 1
  1735   1027   1123 1
  1736   1027   1599 1
  1737   1028   1124 1
  1738   1028   1600 1
  1739   1029   1125 1
  1740   1029   1645 1
  1741   1030   1126 1
  1742   1030   1646 1
  1743   1031   1127 1
  1744   1031   1601 1
  1745   1031   1647 1
  1746   1032   1128 1
  1747   1032   1602 1
  1748   1032   1648 1
  1749   1033   1129 1
  1750   1033   1603 1
  1751   1033   1639 1
  1752   1034   1130 1
  1753   1034   1604 1
  1754   1034   1640 1
  1755   1035   1131 1
  1756   1035   1641 1
  1757   1036   1132 1
  1758   1036   1642 1
  1759   1037   1133 1
  1760   1037   1605 1
  1761   1037   1637 1
  1762   1038   1134 1
  1763   1038   1606 1
  1764   1038   1638 1
  1765   1039   1135 1
  1766   1039   1607 1
  1767   1040   1136 1
  1768   1040   1608 1
  1769   1041   1137 1
  1770   1041   1633 1
  1771   1042   1138 1
  1772   1042   1609 1
  1773   1042   1634 1
  1774   1043   1139 1
  1775   1043   1635 1
  1776   1044   1140 1
  1777   1044   1610 1
  1778   1044   1636 1
  1779   1045   1141 1
  1780   1045   1611 1
  1781   1045   1629 1
  1782   1046   1142 1
  1783   1046   1630 1
  1784   1047   1143 1
  1785   1047   1612 1
  1786   1047   1631 1
  1787   1048   1144 1
  1788   1048   1632 1
  1789   1049   1145 1
  1790   1049   1625 1
  1791   1050   1146 1
  1792   1050   1613 1
  1793   1050   1626 1
  1794   1051   1147 1
  1795   1052   1148 1
  1796   1052   1614 1
  1797   1053   1149 1
  1798   1053   1615 1
  1799   1054   1150 1
  1800   1055   1151 1
  1801   1055   1616 1
  1802   1055   1627 1
  1803   1056   1152 1
  1804   1056   1628 1
  1805   1057   1153 1
  1806   1057   1197 1
  1807   1058   1154 1
  1808   1058   1198 1
  1809   1059   1155 1
  1810   1059   1199 1
  1811   1060   1156 1
  1812   1060   1200 1
  1813   1061   1157 1
  1814   1061   1185 1
  1815   1062   1158 1
  1816   1062   1186 1
  1817   1063   1159 1
  1818   1063   1187 1
  1819   1064   1160 1
  1820   1064   1188 1
  1821   1065   1161 1
  1822   1065   1193 1
  1823   1066   1162 1
  1824   1066   1194 1
  1825   1067   1163 1
  1826   1067   1195 1
  1827   1068   1164 1
  1828   1068   1196 1
  1829   1069   1165 1
  1830   1069   1189 1
  1831   1070   1166 1
  1832   1070   1190 1
  1833   1071   1167 1
  1834   1071   1191 1
  1835   1072   1168 1
  1836   1072   1192 1
  1837   1073   1165 1
  1838   1073   1169 1
  1839   1074   1166 1
  1840   1074   1170 1
  1841   1075   1167 1
  1842   1075   1171 1
  1843   1076   1168 1
  1844   1076   1172 1
  1845   1077   1153 1
  1846   1077   1173 1
  1847   1078   1154 1
  1848   1078   1174 1
  1849   1079   1155 1
  1850   1079   1175 1
  1851   1080   1156 1
  1852   1080   1176 1
  1853   1081   1161 1
  1854   1081   1177 1
  1855   1082   1162 1
  1856   1082   1178 1
  1857   1083   1163 1
  1858   1083   1179 1
  1859   1084   1164 1
  1860   1084   1180 1
  1861   1085   1157 1
  1862   1085   1181 1
  1863   1086   1158 1
  1864   1086   1182 1
  1865   1087   1159 1
  1866   1087   1183 1
  1867   1088   1160 1
  1868   1088   1184 1
  1869   1089   1181 1
  1870   1089   1185 1
  1871   1090   1182 1
  1872   1090   1186 1
  1873   1091   1183 1
  1874   1091   1187 1
  1875   1092   1184 1
  1876   1092   1188 1
  1877   1093   1169 1
  1878   1093   1189 1
  1879   1094   1170 1
  1880   1094   1190 1
  1881   1095   1171 1
  1882   1095   1191 1
  1883   1096   1172 1
  1884   1096   1192 1
  1885   1097   1177 1
  1886   1097   1193 1
  1887   1098   1178 1
  1888   1098   1194 1
  1889   1099   1179 1
  1890   1099   1195 1
  1891   1100   1180 1
  1892   1100   1196 1
  1893   1101   1173 1
  1894   1101   1197 1
  1895   1102   1174 1
  1896   1102   1198 1
  1897   1103   1175 1
  1898   1103   1199 1
  1899   1104   1176 1
  1900   1104   1200 1
  1901   1105   1201 1
  1902   1105   1245 1
  1903   1106   1202 1
  1904   1106   1246 1
  1905   1107   1203 1
  1906   1107   1247 1
  1907   1108   1204 1
  1908   1108   1248 1
  1909   1109   1205 1
  1910   1109   1233 1
  1911   1110   1206 1
  1912   1110   1234 1
  1913   1111   1207 1
  1914   1111   1235 1
  1915   1112   1208 1
  1916   1112   1236 1
  1917   1113   1209 1
  1918   1113   1241 1
  1919   1114   1210 1
  1920   1114   1242 1
  1921   1115   1211 1
  1922   1115   1243 1
  1923   1116   1212 1
  1924   1116   1244 1
  1925   1117   1213 1
  1926   1117   1237 1
  1927   1118   1214 1
  1928   1118   1238 1
  1929   1119   1215 1
  1930   1119   1239 1
  1931   1120   1216 1
  1932   1120   1240 1
  1933   1121   1213 1
  1934   1121   1217 1
  1935   1122   1214 1
  1936   1122   1218 1
  1937   1123   1215 1
  1938   1123   1219 1
  1939   1124   1216 1
  1940   1124   1220 1
  1941   1125   1201 1
  1942   1125   1221 1
  1943   1126   1202 1
  1944   1126   1222 1
  1945   1127   1203 1
  1946   1127   1223 1
  1947   1128   1204 1
  1948   1128   1224 1
  1949   1129   1209 1
  1950   1129   1225 1
  1951   1130   1210 1
  1952   1130   1226 1
  1953   1131   1211 1
  1954   1131   1227 1
  1955   1132   1212 1
  1956   1132   1228 1
  1957   1133   1205 1
  1958   1133   1229 1
  1959   1134   1206 1
  1960   1134   1230 1
  1961   1135   1207 1
  1962   1135   1231 1
  1963   1136   1208 1
  1964   1136   1232 1
  1965   1137   1229 1
  1966   1137   1233 1
  1967   1138   1230 1
  1968   1138   1234 1
  1969   1139   1231 1
  1970   1139   1235 1
  1971   1140   1232 1
  1972   1140   1236 1
  1973   1141   1217 1
  1974   1141   1237 1
  1975   1142   1218 1
  1976   1142   1238 1
  1977   1143   1219 1
  1978   1143   1239 1
  1979   1144   1220 1
  1980   1144   1240 1
  1981   1145   1225 1
  1982   1145   1241 1
  1983   1146   1226 1
  1984   1146   1242 1
  1985   1147   1227 1
  1986   1147   1243 1
  1987   1148   1228 1
  1988   1148   1244 1
  1989   1149   1221 1
  1990   1149   1245 1
  1991   1150   1222 1
  1992   1150   1246 1
  1993   1151   1223 1
  1994   1151   1247 1
  1995   1152   1224 1
  1996   1152   1248 1
  1997   1154   1733 1
  1998   1156   1734 1
  1999   1157   1735 1
  2000   1159   1736 1
  2001   1162   1737 1
  2002   1164   1738 1
  2003   1165   1739 1
  2004   1167   1740 1
  2005   1201   1741 1
  2006   1202   1742 1
  2007   1203   1743 1
  2008   1204   1744 1
  2009   1205   1745 1
  2010   1206   1746 1
  2011   1209   1747 1
  2012   1210   1748 1
  2013   1211   1749 1
  2014   1212   1750 1
  2015   1213   1751 1
  2016   1214   1752 1
