@<TRIPOS>MOLECULE
zn_nh2_btc_tbo
1896 2160 0 0 0
SMALL
NO_CHARGES

@<TRIPOS>ATOM
     1 Zn1        18.898789    -0.000000    18.898790 Zn   1 RES 0.0000
     2 Zn2        18.898789    26.343000    18.898790 Zn   1 RES 0.0000
     3 Zn3        -5.727290    13.171500     7.444211 Zn   1 RES 0.0000
     4 Zn4        20.615710    13.171500     7.444211 Zn   1 RES 0.0000
     5 Zn5        -5.727291    -0.000000     5.727291 Zn   1 RES 0.0000
     6 Zn6        -5.727291    -0.000000    32.070291 Zn   1 RES 0.0000
     7 Zn7        -5.727291    26.343000     5.727291 Zn   1 RES 0.0000
     8 Zn8        -5.727291    26.343000    32.070291 Zn   1 RES 0.0000
     9 Zn9        20.615709    -0.000000     5.727291 Zn   1 RES 0.0000
    10 Zn10       20.615709    -0.000000    32.070291 Zn   1 RES 0.0000
    11 Zn11       20.615709    26.343000     5.727291 Zn   1 RES 0.0000
    12 Zn12       20.615709    26.343000    32.070291 Zn   1 RES 0.0000
    13 Zn13       18.898788    -0.000000     7.444212 Zn   1 RES 0.0000
    14 Zn14       18.898788    26.343000     7.444212 Zn   1 RES 0.0000
    15 Zn15       13.207272    18.939496     5.688412 Zn   1 RES 0.0000
    16 Zn16       13.207272    18.939496    32.031412 Zn   1 RES 0.0000
    17 Zn17        0.035773     7.403504     7.483090 Zn   1 RES 0.0000
    18 Zn18       26.378773     7.403504     7.483090 Zn   1 RES 0.0000
    19 Zn19       -0.035774     5.767995    -5.688410 Zn   1 RES 0.0000
    20 Zn20       -0.035774     5.767995    20.654590 Zn   1 RES 0.0000
    21 Zn21       -0.035774    32.110995    -5.688410 Zn   1 RES 0.0000
    22 Zn22       -0.035774    32.110995    20.654590 Zn   1 RES 0.0000
    23 Zn23       26.307226     5.767995    -5.688410 Zn   1 RES 0.0000
    24 Zn24       26.307226     5.767995    20.654590 Zn   1 RES 0.0000
    25 Zn25       26.307226    32.110995    -5.688410 Zn   1 RES 0.0000
    26 Zn26       26.307226    32.110995    20.654590 Zn   1 RES 0.0000
    27 Zn27       -0.035774     7.403503    18.859912 Zn   1 RES 0.0000
    28 Zn28       26.307226     7.403503    18.859912 Zn   1 RES 0.0000
    29 Zn29       18.859910    18.939495    -0.035773 Zn   1 RES 0.0000
    30 Zn30       18.859910    18.939495    26.307227 Zn   1 RES 0.0000
    31 Zn31       -5.688412     7.403503    13.135728 Zn   1 RES 0.0000
    32 Zn32       20.654588     7.403503    13.135728 Zn   1 RES 0.0000
    33 Zn33       18.859910     7.403504     0.035774 Zn   1 RES 0.0000
    34 Zn34       18.859910     7.403504    26.378774 Zn   1 RES 0.0000
    35 Zn35       -5.688412     5.767996     0.035774 Zn   1 RES 0.0000
    36 Zn36       -5.688412     5.767996    26.378774 Zn   1 RES 0.0000
    37 Zn37       -5.688412    32.110996     0.035774 Zn   1 RES 0.0000
    38 Zn38       -5.688412    32.110996    26.378774 Zn   1 RES 0.0000
    39 Zn39       20.654588     5.767996     0.035774 Zn   1 RES 0.0000
    40 Zn40       20.654588     5.767996    26.378774 Zn   1 RES 0.0000
    41 Zn41       20.654588    32.110996     0.035774 Zn   1 RES 0.0000
    42 Zn42       20.654588    32.110996    26.378774 Zn   1 RES 0.0000
    43 Zn43       18.898789    13.171500     5.727290 Zn   1 RES 0.0000
    44 Zn44       18.898789    13.171500    32.070290 Zn   1 RES 0.0000
    45 Zn45       -5.727290     0.000000    -5.727289 Zn   1 RES 0.0000
    46 Zn46       -5.727290     0.000000    20.615711 Zn   1 RES 0.0000
    47 Zn47       -5.727290    26.343000    -5.727289 Zn   1 RES 0.0000
    48 Zn48       -5.727290    26.343000    20.615711 Zn   1 RES 0.0000
    49 Zn49       20.615710     0.000000    -5.727289 Zn   1 RES 0.0000
    50 Zn50       20.615710     0.000000    20.615711 Zn   1 RES 0.0000
    51 Zn51       20.615710    26.343000    -5.727289 Zn   1 RES 0.0000
    52 Zn52       20.615710    26.343000    20.615711 Zn   1 RES 0.0000
    53 Zn53       -5.727291    13.171500    18.898791 Zn   1 RES 0.0000
    54 Zn54       20.615709    13.171500    18.898791 Zn   1 RES 0.0000
    55 Zn55       18.898788    13.171500    -5.727288 Zn   1 RES 0.0000
    56 Zn56       18.898788    13.171500    20.615712 Zn   1 RES 0.0000
    57 Zn57       13.207272     5.767996    18.859912 Zn   1 RES 0.0000
    58 Zn58       13.207272    32.110996    18.859912 Zn   1 RES 0.0000
    59 Zn59        0.035773    -5.767996    -5.688410 Zn   1 RES 0.0000
    60 Zn60        0.035773    -5.767996    20.654590 Zn   1 RES 0.0000
    61 Zn61        0.035773    20.575004    -5.688410 Zn   1 RES 0.0000
    62 Zn62        0.035773    20.575004    20.654590 Zn   1 RES 0.0000
    63 Zn63       26.378773    -5.767996    -5.688410 Zn   1 RES 0.0000
    64 Zn64       26.378773    -5.767996    20.654590 Zn   1 RES 0.0000
    65 Zn65       26.378773    20.575004    -5.688410 Zn   1 RES 0.0000
    66 Zn66       26.378773    20.575004    20.654590 Zn   1 RES 0.0000
    67 Zn67       -0.035774    18.939495     7.483090 Zn   1 RES 0.0000
    68 Zn68       26.307226    18.939495     7.483090 Zn   1 RES 0.0000
    69 Zn69       -0.035774    -5.767997     5.688412 Zn   1 RES 0.0000
    70 Zn70       -0.035774    -5.767997    32.031412 Zn   1 RES 0.0000
    71 Zn71       -0.035774    20.575003     5.688412 Zn   1 RES 0.0000
    72 Zn72       -0.035774    20.575003    32.031412 Zn   1 RES 0.0000
    73 Zn73       26.307226    -5.767997     5.688412 Zn   1 RES 0.0000
    74 Zn74       26.307226    -5.767997    32.031412 Zn   1 RES 0.0000
    75 Zn75       26.307226    20.575003     5.688412 Zn   1 RES 0.0000
    76 Zn76       26.307226    20.575003    32.031412 Zn   1 RES 0.0000
    77 Zn77       18.859910     5.767995    13.135727 Zn   1 RES 0.0000
    78 Zn78       18.859910    32.110995    13.135727 Zn   1 RES 0.0000
    79 Zn79       -5.688412    -5.767997    -0.035772 Zn   1 RES 0.0000
    80 Zn80       -5.688412    -5.767997    26.307228 Zn   1 RES 0.0000
    81 Zn81       -5.688412    20.575003    -0.035772 Zn   1 RES 0.0000
    82 Zn82       -5.688412    20.575003    26.307228 Zn   1 RES 0.0000
    83 Zn83       20.654588    -5.767997    -0.035772 Zn   1 RES 0.0000
    84 Zn84       20.654588    -5.767997    26.307228 Zn   1 RES 0.0000
    85 Zn85       20.654588    20.575003    -0.035772 Zn   1 RES 0.0000
    86 Zn86       20.654588    20.575003    26.307228 Zn   1 RES 0.0000
    87 Zn87       18.859910    -5.767996    13.207274 Zn   1 RES 0.0000
    88 Zn88       18.859910    20.575004    13.207274 Zn   1 RES 0.0000
    89 Zn89       -5.688412    18.939496    13.207274 Zn   1 RES 0.0000
    90 Zn90       20.654588    18.939496    13.207274 Zn   1 RES 0.0000
    91 Zn91        5.727289    -0.000000     5.727290 Zn   1 RES 0.0000
    92 Zn92        5.727289    -0.000000    32.070290 Zn   1 RES 0.0000
    93 Zn93        5.727289    26.343000     5.727290 Zn   1 RES 0.0000
    94 Zn94        5.727289    26.343000    32.070290 Zn   1 RES 0.0000
    95 Zn95       32.070289    -0.000000     5.727290 Zn   1 RES 0.0000
    96 Zn96       32.070289    -0.000000    32.070290 Zn   1 RES 0.0000
    97 Zn97       32.070289    26.343000     5.727290 Zn   1 RES 0.0000
    98 Zn98       32.070289    26.343000    32.070290 Zn   1 RES 0.0000
    99 Zn99        7.444210    13.171500    -5.727289 Zn   1 RES 0.0000
   100 Zn100       7.444210    13.171500    20.615711 Zn   1 RES 0.0000
   101 Zn101       7.444209    -0.000000    18.898791 Zn   1 RES 0.0000
   102 Zn102       7.444209    26.343000    18.898791 Zn   1 RES 0.0000
   103 Zn103       5.727288    -0.000000    -5.727288 Zn   1 RES 0.0000
   104 Zn104       5.727288    -0.000000    20.615712 Zn   1 RES 0.0000
   105 Zn105       5.727288    26.343000    -5.727288 Zn   1 RES 0.0000
   106 Zn106       5.727288    26.343000    20.615712 Zn   1 RES 0.0000
   107 Zn107      32.070288    -0.000000    -5.727288 Zn   1 RES 0.0000
   108 Zn108      32.070288    -0.000000    20.615712 Zn   1 RES 0.0000
   109 Zn109      32.070288    26.343000    -5.727288 Zn   1 RES 0.0000
   110 Zn110      32.070288    26.343000    20.615712 Zn   1 RES 0.0000
   111 Zn111       0.035772    18.939496    18.859912 Zn   1 RES 0.0000
   112 Zn112      26.378772    18.939496    18.859912 Zn   1 RES 0.0000
   113 Zn113      13.207273     7.403504    -5.688410 Zn   1 RES 0.0000
   114 Zn114      13.207273     7.403504    20.654590 Zn   1 RES 0.0000
   115 Zn115      13.135726     5.767995     7.483090 Zn   1 RES 0.0000
   116 Zn116      13.135726    32.110995     7.483090 Zn   1 RES 0.0000
   117 Zn117      13.135726     7.403503     5.688412 Zn   1 RES 0.0000
   118 Zn118      13.135726     7.403503    32.031412 Zn   1 RES 0.0000
   119 Zn119       5.688410    18.939495    13.135727 Zn   1 RES 0.0000
   120 Zn120      32.031410    18.939495    13.135727 Zn   1 RES 0.0000
   121 Zn121       7.483088     7.403503    -0.035772 Zn   1 RES 0.0000
   122 Zn122       7.483088     7.403503    26.307228 Zn   1 RES 0.0000
   123 Zn123       5.688410     7.403504    13.207274 Zn   1 RES 0.0000
   124 Zn124      32.031410     7.403504    13.207274 Zn   1 RES 0.0000
   125 Zn125       7.483088     5.767996    13.207274 Zn   1 RES 0.0000
   126 Zn126       7.483088    32.110996    13.207274 Zn   1 RES 0.0000
   127 Zn127       5.727289    13.171500    18.898790 Zn   1 RES 0.0000
   128 Zn128      32.070289    13.171500    18.898790 Zn   1 RES 0.0000
   129 Zn129       7.444210     0.000000     7.444211 Zn   1 RES 0.0000
   130 Zn130       7.444210    26.343000     7.444211 Zn   1 RES 0.0000
   131 Zn131       7.444209    13.171500     5.727291 Zn   1 RES 0.0000
   132 Zn132       7.444209    13.171500    32.070291 Zn   1 RES 0.0000
   133 Zn133       5.727288    13.171500     7.444212 Zn   1 RES 0.0000
   134 Zn134      32.070288    13.171500     7.444212 Zn   1 RES 0.0000
   135 Zn135       0.035772     5.767996     5.688412 Zn   1 RES 0.0000
   136 Zn136       0.035772     5.767996    32.031412 Zn   1 RES 0.0000
   137 Zn137       0.035772    32.110996     5.688412 Zn   1 RES 0.0000
   138 Zn138       0.035772    32.110996    32.031412 Zn   1 RES 0.0000
   139 Zn139      26.378772     5.767996     5.688412 Zn   1 RES 0.0000
   140 Zn140      26.378772     5.767996    32.031412 Zn   1 RES 0.0000
   141 Zn141      26.378772    32.110996     5.688412 Zn   1 RES 0.0000
   142 Zn142      26.378772    32.110996    32.031412 Zn   1 RES 0.0000
   143 Zn143      13.207273    -5.767996     7.483090 Zn   1 RES 0.0000
   144 Zn144      13.207273    20.575004     7.483090 Zn   1 RES 0.0000
   145 Zn145      13.135726    18.939495    -5.688410 Zn   1 RES 0.0000
   146 Zn146      13.135726    18.939495    20.654590 Zn   1 RES 0.0000
   147 Zn147      13.135726    -5.767997    18.859912 Zn   1 RES 0.0000
   148 Zn148      13.135726    20.575003    18.859912 Zn   1 RES 0.0000
   149 Zn149       5.688410     5.767995    -0.035773 Zn   1 RES 0.0000
   150 Zn150       5.688410     5.767995    26.307227 Zn   1 RES 0.0000
   151 Zn151       5.688410    32.110995    -0.035773 Zn   1 RES 0.0000
   152 Zn152       5.688410    32.110995    26.307227 Zn   1 RES 0.0000
   153 Zn153      32.031410     5.767995    -0.035773 Zn   1 RES 0.0000
   154 Zn154      32.031410     5.767995    26.307227 Zn   1 RES 0.0000
   155 Zn155      32.031410    32.110995    -0.035773 Zn   1 RES 0.0000
   156 Zn156      32.031410    32.110995    26.307227 Zn   1 RES 0.0000
   157 Zn157       7.483088    -5.767997    13.135728 Zn   1 RES 0.0000
   158 Zn158       7.483088    20.575003    13.135728 Zn   1 RES 0.0000
   159 Zn159       5.688410    -5.767996     0.035774 Zn   1 RES 0.0000
   160 Zn160       5.688410    -5.767996    26.378774 Zn   1 RES 0.0000
   161 Zn161       5.688410    20.575004     0.035774 Zn   1 RES 0.0000
   162 Zn162       5.688410    20.575004    26.378774 Zn   1 RES 0.0000
   163 Zn163      32.031410    -5.767996     0.035774 Zn   1 RES 0.0000
   164 Zn164      32.031410    -5.767996    26.378774 Zn   1 RES 0.0000
   165 Zn165      32.031410    20.575004     0.035774 Zn   1 RES 0.0000
   166 Zn166      32.031410    20.575004    26.378774 Zn   1 RES 0.0000
   167 Zn167       7.483088    18.939496     0.035774 Zn   1 RES 0.0000
   168 Zn168       7.483088    18.939496    26.378774 Zn   1 RES 0.0000
   169 H169      16.326195    20.172076     3.084354 H    1 RES 0.0000
   170 H170      16.326195    20.172076    29.427354 H    1 RES 0.0000
   171 H171      16.326195     6.170924    -3.084354 H    1 RES 0.0000
   172 H172      16.326195     6.170924    23.258646 H    1 RES 0.0000
   173 H173      -3.154695     7.000576    -3.084354 H    1 RES 0.0000
   174 H174      -3.154695     7.000576    23.258646 H    1 RES 0.0000
   175 H175      23.188305     7.000576    -3.084354 H    1 RES 0.0000
   176 H176      23.188305     7.000576    23.258646 H    1 RES 0.0000
   177 H177      -3.154695    19.342424     3.084354 H    1 RES 0.0000
   178 H178      -3.154695    19.342424    29.427354 H    1 RES 0.0000
   179 H179      23.188305    19.342424     3.084354 H    1 RES 0.0000
   180 H180      23.188305    19.342424    29.427354 H    1 RES 0.0000
   181 H181      20.159541    16.322009     3.084614 H    1 RES 0.0000
   182 H182      20.159541    16.322009    29.427614 H    1 RES 0.0000
   183 H183      19.354959    -3.150509     3.084614 H    1 RES 0.0000
   184 H184      19.354959    -3.150509    29.427614 H    1 RES 0.0000
   185 H185      19.354959    23.192491     3.084614 H    1 RES 0.0000
   186 H186      19.354959    23.192491    29.427614 H    1 RES 0.0000
   187 H187      20.159541    10.020991    -3.084614 H    1 RES 0.0000
   188 H188      20.159541    10.020991    23.258386 H    1 RES 0.0000
   189 H189      19.354959     3.150509    -3.084614 H    1 RES 0.0000
   190 H190      19.354959     3.150509    23.258386 H    1 RES 0.0000
   191 H191      19.354959    29.493509    -3.084614 H    1 RES 0.0000
   192 H192      19.354959    29.493509    23.258386 H    1 RES 0.0000
   193 H193      16.255854     6.170924     3.154695 H    1 RES 0.0000
   194 H194      16.255854     6.170924    29.497695 H    1 RES 0.0000
   195 H195      -3.084354     7.000576     3.154695 H    1 RES 0.0000
   196 H196      -3.084354     7.000576    29.497695 H    1 RES 0.0000
   197 H197      23.258646     7.000576     3.154695 H    1 RES 0.0000
   198 H198      23.258646     7.000576    29.497695 H    1 RES 0.0000
   199 H199      -3.084354    19.342424    -3.154695 H    1 RES 0.0000
   200 H200      -3.084354    19.342424    23.188305 H    1 RES 0.0000
   201 H201      23.258646    19.342424    -3.154695 H    1 RES 0.0000
   202 H202      23.258646    19.342424    23.188305 H    1 RES 0.0000
   203 H203      16.255854    20.172076    -3.154695 H    1 RES 0.0000
   204 H204      16.255854    20.172076    23.188305 H    1 RES 0.0000
   205 H205      16.256114    -3.150509    20.159541 H    1 RES 0.0000
   206 H206      16.256114    23.192491    20.159541 H    1 RES 0.0000
   207 H207      16.256114     3.150509     6.183459 H    1 RES 0.0000
   208 H208      16.256114    29.493509     6.183459 H    1 RES 0.0000
   209 H209      -3.084614    16.322009    20.159541 H    1 RES 0.0000
   210 H210      23.258386    16.322009    20.159541 H    1 RES 0.0000
   211 H211      -3.084614    10.020991     6.183459 H    1 RES 0.0000
   212 H212      23.258386    10.020991     6.183459 H    1 RES 0.0000
   213 H213      16.326195     7.000576    16.255854 H    1 RES 0.0000
   214 H214      16.326195    19.342424    10.087146 H    1 RES 0.0000
   215 H215      -3.154695    20.172076    10.087146 H    1 RES 0.0000
   216 H216      23.188305    20.172076    10.087146 H    1 RES 0.0000
   217 H217      -3.154695     6.170924    16.255854 H    1 RES 0.0000
   218 H218      23.188305     6.170924    16.255854 H    1 RES 0.0000
   219 H219      20.159541     3.150509    16.256114 H    1 RES 0.0000
   220 H220      20.159541    29.493509    16.256114 H    1 RES 0.0000
   221 H221      19.354959    10.020991    16.256114 H    1 RES 0.0000
   222 H222      20.159541    -3.150509    10.086886 H    1 RES 0.0000
   223 H223      20.159541    23.192491    10.086886 H    1 RES 0.0000
   224 H224      19.354959    16.322009    10.086886 H    1 RES 0.0000
   225 H225      16.255854    19.342424    16.326195 H    1 RES 0.0000
   226 H226      -3.084354    20.172076    16.326195 H    1 RES 0.0000
   227 H227      23.258646    20.172076    16.326195 H    1 RES 0.0000
   228 H228      -3.084354     6.170924    10.016805 H    1 RES 0.0000
   229 H229      23.258646     6.170924    10.016805 H    1 RES 0.0000
   230 H230      16.255854     7.000576    10.016805 H    1 RES 0.0000
   231 H231      16.256114    10.020991     6.988041 H    1 RES 0.0000
   232 H232      16.256114    16.322009    19.354959 H    1 RES 0.0000
   233 H233      -3.084614     3.150509     6.988041 H    1 RES 0.0000
   234 H234      -3.084614    29.493509     6.988041 H    1 RES 0.0000
   235 H235      23.258386     3.150509     6.988041 H    1 RES 0.0000
   236 H236      23.258386    29.493509     6.988041 H    1 RES 0.0000
   237 H237      -3.084614    -3.150509    19.354959 H    1 RES 0.0000
   238 H238      -3.084614    23.192491    19.354959 H    1 RES 0.0000
   239 H239      23.258386    -3.150509    19.354959 H    1 RES 0.0000
   240 H240      23.258386    23.192491    19.354959 H    1 RES 0.0000
   241 H241       3.154695    20.172076    16.255854 H    1 RES 0.0000
   242 H242      29.497695    20.172076    16.255854 H    1 RES 0.0000
   243 H243       3.154695     6.170924    10.087146 H    1 RES 0.0000
   244 H244      29.497695     6.170924    10.087146 H    1 RES 0.0000
   245 H245      10.016805     7.000576    10.087146 H    1 RES 0.0000
   246 H246      10.016805    19.342424    16.255854 H    1 RES 0.0000
   247 H247       6.988041    16.322009    16.256114 H    1 RES 0.0000
   248 H248       6.183459    -3.150509    16.256114 H    1 RES 0.0000
   249 H249       6.183459    23.192491    16.256114 H    1 RES 0.0000
   250 H250       6.988041    10.020991    10.086886 H    1 RES 0.0000
   251 H251       6.183459     3.150509    10.086886 H    1 RES 0.0000
   252 H252       6.183459    29.493509    10.086886 H    1 RES 0.0000
   253 H253       3.084354     6.170924    16.326195 H    1 RES 0.0000
   254 H254      29.427354     6.170924    16.326195 H    1 RES 0.0000
   255 H255      10.087146     7.000576    16.326195 H    1 RES 0.0000
   256 H256      10.087146    19.342424    10.016805 H    1 RES 0.0000
   257 H257       3.084354    20.172076    10.016805 H    1 RES 0.0000
   258 H258      29.427354    20.172076    10.016805 H    1 RES 0.0000
   259 H259       3.084614    -3.150509     6.988041 H    1 RES 0.0000
   260 H260       3.084614    23.192491     6.988041 H    1 RES 0.0000
   261 H261      29.427614    -3.150509     6.988041 H    1 RES 0.0000
   262 H262      29.427614    23.192491     6.988041 H    1 RES 0.0000
   263 H263       3.084614     3.150509    19.354959 H    1 RES 0.0000
   264 H264       3.084614    29.493509    19.354959 H    1 RES 0.0000
   265 H265      29.427614     3.150509    19.354959 H    1 RES 0.0000
   266 H266      29.427614    29.493509    19.354959 H    1 RES 0.0000
   267 H267      10.086886    16.322009     6.988041 H    1 RES 0.0000
   268 H268      10.086886    10.020991    19.354959 H    1 RES 0.0000
   269 H269       3.154695     7.000576     3.084354 H    1 RES 0.0000
   270 H270       3.154695     7.000576    29.427354 H    1 RES 0.0000
   271 H271      29.497695     7.000576     3.084354 H    1 RES 0.0000
   272 H272      29.497695     7.000576    29.427354 H    1 RES 0.0000
   273 H273       3.154695    19.342424    -3.084354 H    1 RES 0.0000
   274 H274       3.154695    19.342424    23.258646 H    1 RES 0.0000
   275 H275      29.497695    19.342424    -3.084354 H    1 RES 0.0000
   276 H276      29.497695    19.342424    23.258646 H    1 RES 0.0000
   277 H277      10.016805    20.172076    -3.084354 H    1 RES 0.0000
   278 H278      10.016805    20.172076    23.258646 H    1 RES 0.0000
   279 H279      10.016805     6.170924     3.084354 H    1 RES 0.0000
   280 H280      10.016805     6.170924    29.427354 H    1 RES 0.0000
   281 H281       6.988041     3.150509     3.084614 H    1 RES 0.0000
   282 H282       6.988041     3.150509    29.427614 H    1 RES 0.0000
   283 H283       6.988041    29.493509     3.084614 H    1 RES 0.0000
   284 H284       6.988041    29.493509    29.427614 H    1 RES 0.0000
   285 H285       6.183459    10.020991     3.084614 H    1 RES 0.0000
   286 H286       6.183459    10.020991    29.427614 H    1 RES 0.0000
   287 H287       6.988041    -3.150509    -3.084614 H    1 RES 0.0000
   288 H288       6.988041    -3.150509    23.258386 H    1 RES 0.0000
   289 H289       6.988041    23.192491    -3.084614 H    1 RES 0.0000
   290 H290       6.988041    23.192491    23.258386 H    1 RES 0.0000
   291 H291       6.183459    16.322009    -3.084614 H    1 RES 0.0000
   292 H292       6.183459    16.322009    23.258386 H    1 RES 0.0000
   293 H293       3.084354    19.342424     3.154695 H    1 RES 0.0000
   294 H294       3.084354    19.342424    29.497695 H    1 RES 0.0000
   295 H295      29.427354    19.342424     3.154695 H    1 RES 0.0000
   296 H296      29.427354    19.342424    29.497695 H    1 RES 0.0000
   297 H297      10.087146    20.172076     3.154695 H    1 RES 0.0000
   298 H298      10.087146    20.172076    29.497695 H    1 RES 0.0000
   299 H299      10.087146     6.170924    -3.154695 H    1 RES 0.0000
   300 H300      10.087146     6.170924    23.188305 H    1 RES 0.0000
   301 H301       3.084354     7.000576    -3.154695 H    1 RES 0.0000
   302 H302       3.084354     7.000576    23.188305 H    1 RES 0.0000
   303 H303      29.427354     7.000576    -3.154695 H    1 RES 0.0000
   304 H304      29.427354     7.000576    23.188305 H    1 RES 0.0000
   305 H305       3.084614    10.020991    20.159541 H    1 RES 0.0000
   306 H306      29.427614    10.020991    20.159541 H    1 RES 0.0000
   307 H307       3.084614    16.322009     6.183459 H    1 RES 0.0000
   308 H308      29.427614    16.322009     6.183459 H    1 RES 0.0000
   309 H309      10.086886     3.150509    20.159541 H    1 RES 0.0000
   310 H310      10.086886    29.493509    20.159541 H    1 RES 0.0000
   311 H311      10.086886    -3.150509     6.183459 H    1 RES 0.0000
   312 H312      10.086886    23.192491     6.183459 H    1 RES 0.0000
   313 H313      16.600327     2.180927    19.625487 H    1 RES 0.0000
   314 H314      16.600327    28.523927    19.625487 H    1 RES 0.0000
   315 H315      15.361776     3.432610    19.632283 H    1 RES 0.0000
   316 H316      15.361776    29.775610    19.632283 H    1 RES 0.0000
   317 H317      -3.428827    15.352427     6.717513 H    1 RES 0.0000
   318 H318      22.914173    15.352427     6.717513 H    1 RES 0.0000
   319 H319      -2.190277    16.604110     6.710716 H    1 RES 0.0000
   320 H320      24.152723    16.604110     6.710716 H    1 RES 0.0000
   321 H321      -3.428827    10.990573    19.625486 H    1 RES 0.0000
   322 H322      22.914173    10.990573    19.625486 H    1 RES 0.0000
   323 H323      -2.190276     9.738889    19.632283 H    1 RES 0.0000
   324 H324      24.152724     9.738889    19.632283 H    1 RES 0.0000
   325 H325      16.600327    -2.180928     6.717513 H    1 RES 0.0000
   326 H326      16.600327    24.162072     6.717513 H    1 RES 0.0000
   327 H327      15.361777    -3.432610     6.710717 H    1 RES 0.0000
   328 H328      15.361777    22.910390     6.710717 H    1 RES 0.0000
   329 H329      19.625487    10.990573     3.428827 H    1 RES 0.0000
   330 H330      19.625487    10.990573    29.771827 H    1 RES 0.0000
   331 H331      19.632284     9.738890     2.190277 H    1 RES 0.0000
   332 H332      19.632284     9.738890    28.533277 H    1 RES 0.0000
   333 H333      19.889013    -2.180927    -3.428827 H    1 RES 0.0000
   334 H334      19.889013    -2.180927    22.914173 H    1 RES 0.0000
   335 H335      19.889013    24.162073    -3.428827 H    1 RES 0.0000
   336 H336      19.889013    24.162073    22.914173 H    1 RES 0.0000
   337 H337      19.882217    -3.432610    -2.190276 H    1 RES 0.0000
   338 H338      19.882217    -3.432610    24.152724 H    1 RES 0.0000
   339 H339      19.882217    22.910390    -2.190276 H    1 RES 0.0000
   340 H340      19.882217    22.910390    24.152724 H    1 RES 0.0000
   341 H341      19.625487    15.352428    -3.428827 H    1 RES 0.0000
   342 H342      19.625487    15.352428    22.914173 H    1 RES 0.0000
   343 H343      19.632284    16.604110    -2.190277 H    1 RES 0.0000
   344 H344      19.632284    16.604110    24.152723 H    1 RES 0.0000
   345 H345      19.889014     2.180927     3.428827 H    1 RES 0.0000
   346 H346      19.889014     2.180927    29.771827 H    1 RES 0.0000
   347 H347      19.889014    28.523927     3.428827 H    1 RES 0.0000
   348 H348      19.889014    28.523927    29.771827 H    1 RES 0.0000
   349 H349      19.882217     3.432611     2.190276 H    1 RES 0.0000
   350 H350      19.882217     3.432611    28.533276 H    1 RES 0.0000
   351 H351      19.882217    29.775611     2.190276 H    1 RES 0.0000
   352 H352      19.882217    29.775611    28.533276 H    1 RES 0.0000
   353 H353      16.600327    15.352427     6.453987 H    1 RES 0.0000
   354 H354      15.361776    16.604110     6.460783 H    1 RES 0.0000
   355 H355      -3.428827     2.180927    19.889013 H    1 RES 0.0000
   356 H356      -3.428827    28.523927    19.889013 H    1 RES 0.0000
   357 H357      22.914173     2.180927    19.889013 H    1 RES 0.0000
   358 H358      22.914173    28.523927    19.889013 H    1 RES 0.0000
   359 H359      -2.190277     3.432610    19.882216 H    1 RES 0.0000
   360 H360      -2.190277    29.775610    19.882216 H    1 RES 0.0000
   361 H361      24.152723     3.432610    19.882216 H    1 RES 0.0000
   362 H362      24.152723    29.775610    19.882216 H    1 RES 0.0000
   363 H363      -3.428827    -2.180927     6.453986 H    1 RES 0.0000
   364 H364      -3.428827    24.162073     6.453986 H    1 RES 0.0000
   365 H365      22.914173    -2.180927     6.453986 H    1 RES 0.0000
   366 H366      22.914173    24.162073     6.453986 H    1 RES 0.0000
   367 H367      -2.190276    -3.432611     6.460783 H    1 RES 0.0000
   368 H368      -2.190276    22.910389     6.460783 H    1 RES 0.0000
   369 H369      24.152724    -3.432611     6.460783 H    1 RES 0.0000
   370 H370      24.152724    22.910389     6.460783 H    1 RES 0.0000
   371 H371      16.600327    10.990572    19.889013 H    1 RES 0.0000
   372 H372      15.361777     9.738890    19.882217 H    1 RES 0.0000
   373 H373      19.625487    -2.180927    16.600327 H    1 RES 0.0000
   374 H374      19.625487    24.162073    16.600327 H    1 RES 0.0000
   375 H375      19.632284    -3.432610    15.361777 H    1 RES 0.0000
   376 H376      19.632284    22.910390    15.361777 H    1 RES 0.0000
   377 H377      19.889013    10.990573     9.742673 H    1 RES 0.0000
   378 H378      19.882217     9.738890    10.981224 H    1 RES 0.0000
   379 H379      19.625487     2.180928     9.742673 H    1 RES 0.0000
   380 H380      19.625487    28.523928     9.742673 H    1 RES 0.0000
   381 H381      19.632284     3.432610    10.981223 H    1 RES 0.0000
   382 H382      19.632284    29.775610    10.981223 H    1 RES 0.0000
   383 H383      19.889014    15.352427    16.600327 H    1 RES 0.0000
   384 H384      19.882217    16.604111    15.361776 H    1 RES 0.0000
   385 H385       3.428827     2.180927     6.453987 H    1 RES 0.0000
   386 H386       3.428827    28.523927     6.453987 H    1 RES 0.0000
   387 H387      29.771827     2.180927     6.453987 H    1 RES 0.0000
   388 H388      29.771827    28.523927     6.453987 H    1 RES 0.0000
   389 H389       2.190276     3.432610     6.460783 H    1 RES 0.0000
   390 H390       2.190276    29.775610     6.460783 H    1 RES 0.0000
   391 H391      28.533276     3.432610     6.460783 H    1 RES 0.0000
   392 H392      28.533276    29.775610     6.460783 H    1 RES 0.0000
   393 H393       9.742673    15.352427    19.889013 H    1 RES 0.0000
   394 H394      10.981223    16.604110    19.882216 H    1 RES 0.0000
   395 H395       9.742673    10.990573     6.453986 H    1 RES 0.0000
   396 H396      10.981224     9.738889     6.460783 H    1 RES 0.0000
   397 H397       3.428827    -2.180928    19.889013 H    1 RES 0.0000
   398 H398       3.428827    24.162072    19.889013 H    1 RES 0.0000
   399 H399      29.771827    -2.180928    19.889013 H    1 RES 0.0000
   400 H400      29.771827    24.162072    19.889013 H    1 RES 0.0000
   401 H401       2.190277    -3.432610    19.882217 H    1 RES 0.0000
   402 H402       2.190277    22.910390    19.882217 H    1 RES 0.0000
   403 H403      28.533277    -3.432610    19.882217 H    1 RES 0.0000
   404 H404      28.533277    22.910390    19.882217 H    1 RES 0.0000
   405 H405       6.453987    10.990573    16.600327 H    1 RES 0.0000
   406 H406       6.460784     9.738890    15.361777 H    1 RES 0.0000
   407 H407       6.717513    -2.180927     9.742673 H    1 RES 0.0000
   408 H408       6.717513    24.162073     9.742673 H    1 RES 0.0000
   409 H409       6.710717    -3.432610    10.981224 H    1 RES 0.0000
   410 H410       6.710717    22.910390    10.981224 H    1 RES 0.0000
   411 H411       6.453987    15.352428     9.742673 H    1 RES 0.0000
   412 H412       6.460784    16.604110    10.981223 H    1 RES 0.0000
   413 H413       6.717514     2.180927    16.600327 H    1 RES 0.0000
   414 H414       6.717514    28.523927    16.600327 H    1 RES 0.0000
   415 H415       6.710717     3.432611    15.361776 H    1 RES 0.0000
   416 H416       6.710717    29.775611    15.361776 H    1 RES 0.0000
   417 H417       3.428827    15.352427    19.625487 H    1 RES 0.0000
   418 H418      29.771827    15.352427    19.625487 H    1 RES 0.0000
   419 H419       2.190276    16.604110    19.632283 H    1 RES 0.0000
   420 H420      28.533276    16.604110    19.632283 H    1 RES 0.0000
   421 H421       9.742673     2.180927     6.717513 H    1 RES 0.0000
   422 H422       9.742673    28.523927     6.717513 H    1 RES 0.0000
   423 H423      10.981223     3.432610     6.710716 H    1 RES 0.0000
   424 H424      10.981223    29.775610     6.710716 H    1 RES 0.0000
   425 H425       9.742673    -2.180927    19.625486 H    1 RES 0.0000
   426 H426       9.742673    24.162073    19.625486 H    1 RES 0.0000
   427 H427      10.981224    -3.432611    19.632283 H    1 RES 0.0000
   428 H428      10.981224    22.910389    19.632283 H    1 RES 0.0000
   429 H429       3.428827    10.990572     6.717513 H    1 RES 0.0000
   430 H430      29.771827    10.990572     6.717513 H    1 RES 0.0000
   431 H431       2.190277     9.738890     6.710717 H    1 RES 0.0000
   432 H432      28.533277     9.738890     6.710717 H    1 RES 0.0000
   433 H433       6.453987    -2.180927     3.428827 H    1 RES 0.0000
   434 H434       6.453987    -2.180927    29.771827 H    1 RES 0.0000
   435 H435       6.453987    24.162073     3.428827 H    1 RES 0.0000
   436 H436       6.453987    24.162073    29.771827 H    1 RES 0.0000
   437 H437       6.460784    -3.432610     2.190277 H    1 RES 0.0000
   438 H438       6.460784    -3.432610    28.533277 H    1 RES 0.0000
   439 H439       6.460784    22.910390     2.190277 H    1 RES 0.0000
   440 H440       6.460784    22.910390    28.533277 H    1 RES 0.0000
   441 H441       6.717513    10.990573    -3.428827 H    1 RES 0.0000
   442 H442       6.717513    10.990573    22.914173 H    1 RES 0.0000
   443 H443       6.710717     9.738890    -2.190276 H    1 RES 0.0000
   444 H444       6.710717     9.738890    24.152724 H    1 RES 0.0000
   445 H445       6.453987     2.180928    -3.428827 H    1 RES 0.0000
   446 H446       6.453987     2.180928    22.914173 H    1 RES 0.0000
   447 H447       6.453987    28.523928    -3.428827 H    1 RES 0.0000
   448 H448       6.453987    28.523928    22.914173 H    1 RES 0.0000
   449 H449       6.460784     3.432610    -2.190277 H    1 RES 0.0000
   450 H450       6.460784     3.432610    24.152723 H    1 RES 0.0000
   451 H451       6.460784    29.775610    -2.190277 H    1 RES 0.0000
   452 H452       6.460784    29.775610    24.152723 H    1 RES 0.0000
   453 H453       6.717514    15.352427     3.428827 H    1 RES 0.0000
   454 H454       6.717514    15.352427    29.771827 H    1 RES 0.0000
   455 H455       6.710717    16.604111     2.190276 H    1 RES 0.0000
   456 H456       6.710717    16.604111    28.533276 H    1 RES 0.0000
   457 C457      18.644920     1.833338    -5.235802 C    1 RES 0.0000
   458 C458      18.644920     1.833338    21.107198 C    1 RES 0.0000
   459 C459      18.644920    28.176338    -5.235802 C    1 RES 0.0000
   460 C460      18.644920    28.176338    21.107198 C    1 RES 0.0000
   461 C461      -5.473419    15.004838     5.235802 C    1 RES 0.0000
   462 C462      -5.473419    15.004838    31.578802 C    1 RES 0.0000
   463 C463      20.869581    15.004838     5.235802 C    1 RES 0.0000
   464 C464      20.869581    15.004838    31.578802 C    1 RES 0.0000
   465 C465      -5.473415    11.338162    -5.235807 C    1 RES 0.0000
   466 C466      -5.473415    11.338162    21.107193 C    1 RES 0.0000
   467 C467      20.869585    11.338162    -5.235807 C    1 RES 0.0000
   468 C468      20.869585    11.338162    21.107193 C    1 RES 0.0000
   469 C469      18.644924    -1.833338     5.235798 C    1 RES 0.0000
   470 C470      18.644924    -1.833338    31.578798 C    1 RES 0.0000
   471 C471      18.644924    24.509662     5.235798 C    1 RES 0.0000
   472 C472      18.644924    24.509662    31.578798 C    1 RES 0.0000
   473 C473      15.037857    -5.462428     5.245144 C    1 RES 0.0000
   474 C474      15.037857    -5.462428    31.588144 C    1 RES 0.0000
   475 C475      15.037857    20.880572     5.245144 C    1 RES 0.0000
   476 C476      15.037857    20.880572    31.588144 C    1 RES 0.0000
   477 C477      15.037856     5.462423    -5.245150 C    1 RES 0.0000
   478 C478      15.037856     5.462423    21.097850 C    1 RES 0.0000
   479 C479      15.037856    31.805423    -5.245150 C    1 RES 0.0000
   480 C480      15.037856    31.805423    21.097850 C    1 RES 0.0000
   481 C481      -1.866356     7.709077    -5.245150 C    1 RES 0.0000
   482 C482      -1.866356     7.709077    21.097850 C    1 RES 0.0000
   483 C483      24.476644     7.709077    -5.245150 C    1 RES 0.0000
   484 C484      24.476644     7.709077    21.097850 C    1 RES 0.0000
   485 C485      -1.866356    18.633929     5.245144 C    1 RES 0.0000
   486 C486      -1.866356    18.633929    31.588144 C    1 RES 0.0000
   487 C487      24.476644    18.633929     5.245144 C    1 RES 0.0000
   488 C488      24.476644    18.633929    31.588144 C    1 RES 0.0000
   489 C489      -5.387468    18.522121     1.769261 C    1 RES 0.0000
   490 C490      -5.387468    18.522121    28.112261 C    1 RES 0.0000
   491 C491      20.955532    18.522121     1.769261 C    1 RES 0.0000
   492 C492      20.955532    18.522121    28.112261 C    1 RES 0.0000
   493 C493      18.558976    -5.350613     1.769261 C    1 RES 0.0000
   494 C494      18.558976    -5.350613    28.112261 C    1 RES 0.0000
   495 C495      18.558976    20.992387     1.769261 C    1 RES 0.0000
   496 C496      18.558976    20.992387    28.112261 C    1 RES 0.0000
   497 C497      -5.387468     7.820879    -1.769261 C    1 RES 0.0000
   498 C498      -5.387468     7.820879    24.573739 C    1 RES 0.0000
   499 C499      20.955532     7.820879    -1.769261 C    1 RES 0.0000
   500 C500      20.955532     7.820879    24.573739 C    1 RES 0.0000
   501 C501      18.558976     5.350613    -1.769261 C    1 RES 0.0000
   502 C502      18.558976     5.350613    24.573739 C    1 RES 0.0000
   503 C503      18.558976    31.693613    -1.769261 C    1 RES 0.0000
   504 C504      18.558976    31.693613    24.573739 C    1 RES 0.0000
   505 C505      -5.235802    11.338162     5.473420 C    1 RES 0.0000
   506 C506      -5.235802    11.338162    31.816420 C    1 RES 0.0000
   507 C507      21.107198    11.338162     5.473420 C    1 RES 0.0000
   508 C508      21.107198    11.338162    31.816420 C    1 RES 0.0000
   509 C509      18.407303    -1.833338    -5.473420 C    1 RES 0.0000
   510 C510      18.407303    -1.833338    20.869580 C    1 RES 0.0000
   511 C511      18.407303    24.509662    -5.473420 C    1 RES 0.0000
   512 C512      18.407303    24.509662    20.869580 C    1 RES 0.0000
   513 C513      -5.235798    15.004838    -5.473424 C    1 RES 0.0000
   514 C514      -5.235798    15.004838    20.869576 C    1 RES 0.0000
   515 C515      21.107202    15.004838    -5.473424 C    1 RES 0.0000
   516 C516      21.107202    15.004838    20.869576 C    1 RES 0.0000
   517 C517      18.407307     1.833338     5.473415 C    1 RES 0.0000
   518 C518      18.407307     1.833338    31.816415 C    1 RES 0.0000
   519 C519      18.407307    28.176338     5.473415 C    1 RES 0.0000
   520 C520      18.407307    28.176338    31.816415 C    1 RES 0.0000
   521 C521      18.416651     5.462422     1.866356 C    1 RES 0.0000
   522 C522      18.416651     5.462422    28.209356 C    1 RES 0.0000
   523 C523      18.416651    31.805422     1.866356 C    1 RES 0.0000
   524 C524      18.416651    31.805422    28.209356 C    1 RES 0.0000
   525 C525      -5.245143     7.709071     1.866356 C    1 RES 0.0000
   526 C526      -5.245143     7.709071    28.209356 C    1 RES 0.0000
   527 C527      21.097857     7.709071     1.866356 C    1 RES 0.0000
   528 C528      21.097857     7.709071    28.209356 C    1 RES 0.0000
   529 C529      -5.245144    18.633929    -1.866357 C    1 RES 0.0000
   530 C530      -5.245144    18.633929    24.476643 C    1 RES 0.0000
   531 C531      21.097856    18.633929    -1.866357 C    1 RES 0.0000
   532 C532      21.097856    18.633929    24.476643 C    1 RES 0.0000
   533 C533      18.416650    -5.462423    -1.866356 C    1 RES 0.0000
   534 C534      18.416650    -5.462423    24.476644 C    1 RES 0.0000
   535 C535      18.416650    20.880577    -1.866356 C    1 RES 0.0000
   536 C536      18.416650    20.880577    24.476644 C    1 RES 0.0000
   537 C537      14.940761    -5.350613    -5.387476 C    1 RES 0.0000
   538 C538      14.940761    -5.350613    20.955524 C    1 RES 0.0000
   539 C539      14.940761    20.992387    -5.387476 C    1 RES 0.0000
   540 C540      14.940761    20.992387    20.955524 C    1 RES 0.0000
   541 C541      14.940761     5.350621     5.387468 C    1 RES 0.0000
   542 C542      14.940761     5.350621    31.730468 C    1 RES 0.0000
   543 C543      14.940761    31.693621     5.387468 C    1 RES 0.0000
   544 C544      14.940761    31.693621    31.730468 C    1 RES 0.0000
   545 C545      -1.769261    18.522114    -5.387475 C    1 RES 0.0000
   546 C546      -1.769261    18.522114    20.955525 C    1 RES 0.0000
   547 C547      24.573739    18.522114    -5.387475 C    1 RES 0.0000
   548 C548      24.573739    18.522114    20.955525 C    1 RES 0.0000
   549 C549      -1.769261     7.820880     5.387469 C    1 RES 0.0000
   550 C550      -1.769261     7.820880    31.730469 C    1 RES 0.0000
   551 C551      24.573739     7.820880     5.387469 C    1 RES 0.0000
   552 C552      24.573739     7.820880    31.730469 C    1 RES 0.0000
   553 C553      17.917808     2.990454    -4.643201 C    1 RES 0.0000
   554 C554      17.917808     2.990454    21.699799 C    1 RES 0.0000
   555 C555      17.917808    29.333454    -4.643201 C    1 RES 0.0000
   556 C556      17.917808    29.333454    21.699799 C    1 RES 0.0000
   557 C557      -4.746308    16.161954     4.643201 C    1 RES 0.0000
   558 C558      -4.746308    16.161954    30.986201 C    1 RES 0.0000
   559 C559      21.596692    16.161954     4.643201 C    1 RES 0.0000
   560 C560      21.596692    16.161954    30.986201 C    1 RES 0.0000
   561 C561      -4.746309    10.181046    -4.643200 C    1 RES 0.0000
   562 C562      -4.746309    10.181046    21.699800 C    1 RES 0.0000
   563 C563      21.596691    10.181046    -4.643200 C    1 RES 0.0000
   564 C564      21.596691    10.181046    21.699800 C    1 RES 0.0000
   565 C565      17.917807    -2.990454     4.643202 C    1 RES 0.0000
   566 C566      17.917807    -2.990454    30.986202 C    1 RES 0.0000
   567 C567      17.917807    23.352546     4.643202 C    1 RES 0.0000
   568 C568      17.917807    23.352546    30.986202 C    1 RES 0.0000
   569 C569      16.184788    -4.727600     4.637843 C    1 RES 0.0000
   570 C570      16.184788    -4.727600    30.980843 C    1 RES 0.0000
   571 C571      16.184788    21.615400     4.637843 C    1 RES 0.0000
   572 C572      16.184788    21.615400    30.980843 C    1 RES 0.0000
   573 C573      16.184788     4.727601    -4.637842 C    1 RES 0.0000
   574 C574      16.184788     4.727601    21.705158 C    1 RES 0.0000
   575 C575      16.184788    31.070601    -4.637842 C    1 RES 0.0000
   576 C576      16.184788    31.070601    21.705158 C    1 RES 0.0000
   577 C577      -3.013288     8.443899    -4.637841 C    1 RES 0.0000
   578 C578      -3.013288     8.443899    21.705159 C    1 RES 0.0000
   579 C579      23.329712     8.443899    -4.637841 C    1 RES 0.0000
   580 C580      23.329712     8.443899    21.705159 C    1 RES 0.0000
   581 C581      -3.013288    17.899100     4.637842 C    1 RES 0.0000
   582 C582      -3.013288    17.899100    30.980842 C    1 RES 0.0000
   583 C583      23.329712    17.899100     4.637842 C    1 RES 0.0000
   584 C584      23.329712    17.899100    30.980842 C    1 RES 0.0000
   585 C585      -4.730059    17.884044     2.937365 C    1 RES 0.0000
   586 C586      -4.730059    17.884044    29.280365 C    1 RES 0.0000
   587 C587      21.612941    17.884044     2.937365 C    1 RES 0.0000
   588 C588      21.612941    17.884044    29.280365 C    1 RES 0.0000
   589 C589      17.901558    -4.712544     2.937365 C    1 RES 0.0000
   590 C590      17.901558    -4.712544    29.280365 C    1 RES 0.0000
   591 C591      17.901558    21.630456     2.937365 C    1 RES 0.0000
   592 C592      17.901558    21.630456    29.280365 C    1 RES 0.0000
   593 C593      -4.730059     8.458956    -2.937365 C    1 RES 0.0000
   594 C594      -4.730059     8.458956    23.405635 C    1 RES 0.0000
   595 C595      21.612941     8.458956    -2.937365 C    1 RES 0.0000
   596 C596      21.612941     8.458956    23.405635 C    1 RES 0.0000
   597 C597      17.901558     4.712544    -2.937365 C    1 RES 0.0000
   598 C598      17.901558     4.712544    23.405635 C    1 RES 0.0000
   599 C599      17.901558    31.055544    -2.937365 C    1 RES 0.0000
   600 C600      17.901558    31.055544    23.405635 C    1 RES 0.0000
   601 C601      -4.643201    10.181046     4.746308 C    1 RES 0.0000
   602 C602      -4.643201    10.181046    31.089308 C    1 RES 0.0000
   603 C603      21.699799    10.181046     4.746308 C    1 RES 0.0000
   604 C604      21.699799    10.181046    31.089308 C    1 RES 0.0000
   605 C605      17.814701    -2.990454    -4.746308 C    1 RES 0.0000
   606 C606      17.814701    -2.990454    21.596692 C    1 RES 0.0000
   607 C607      17.814701    23.352546    -4.746308 C    1 RES 0.0000
   608 C608      17.814701    23.352546    21.596692 C    1 RES 0.0000
   609 C609      -4.643202    16.161954    -4.746307 C    1 RES 0.0000
   610 C610      -4.643202    16.161954    21.596693 C    1 RES 0.0000
   611 C611      21.699798    16.161954    -4.746307 C    1 RES 0.0000
   612 C612      21.699798    16.161954    21.596693 C    1 RES 0.0000
   613 C613      17.814700     2.990454     4.746309 C    1 RES 0.0000
   614 C614      17.814700     2.990454    31.089309 C    1 RES 0.0000
   615 C615      17.814700    29.333454     4.746309 C    1 RES 0.0000
   616 C616      17.814700    29.333454    31.089309 C    1 RES 0.0000
   617 C617      17.809341     4.727601     3.013288 C    1 RES 0.0000
   618 C618      17.809341     4.727601    29.356288 C    1 RES 0.0000
   619 C619      17.809341    31.070601     3.013288 C    1 RES 0.0000
   620 C620      17.809341    31.070601    29.356288 C    1 RES 0.0000
   621 C621      -4.637843     8.443900     3.013288 C    1 RES 0.0000
   622 C622      -4.637843     8.443900    29.356288 C    1 RES 0.0000
   623 C623      21.705157     8.443900     3.013288 C    1 RES 0.0000
   624 C624      21.705157     8.443900    29.356288 C    1 RES 0.0000
   625 C625      -4.637843    17.899100    -3.013288 C    1 RES 0.0000
   626 C626      -4.637843    17.899100    23.329712 C    1 RES 0.0000
   627 C627      21.705157    17.899100    -3.013288 C    1 RES 0.0000
   628 C628      21.705157    17.899100    23.329712 C    1 RES 0.0000
   629 C629      17.809342    -4.727601    -3.013288 C    1 RES 0.0000
   630 C630      17.809342    -4.727601    23.329712 C    1 RES 0.0000
   631 C631      17.809342    21.615399    -3.013288 C    1 RES 0.0000
   632 C632      17.809342    21.615399    23.329712 C    1 RES 0.0000
   633 C633      16.108865    -4.712544    -4.730058 C    1 RES 0.0000
   634 C634      16.108865    -4.712544    21.612942 C    1 RES 0.0000
   635 C635      16.108865    21.630456    -4.730058 C    1 RES 0.0000
   636 C636      16.108865    21.630456    21.612942 C    1 RES 0.0000
   637 C637      16.108865     4.712544     4.730059 C    1 RES 0.0000
   638 C638      16.108865     4.712544    31.073059 C    1 RES 0.0000
   639 C639      16.108865    31.055544     4.730059 C    1 RES 0.0000
   640 C640      16.108865    31.055544    31.073059 C    1 RES 0.0000
   641 C641      -2.937365    17.884044    -4.730058 C    1 RES 0.0000
   642 C642      -2.937365    17.884044    21.612942 C    1 RES 0.0000
   643 C643      23.405635    17.884044    -4.730058 C    1 RES 0.0000
   644 C644      23.405635    17.884044    21.612942 C    1 RES 0.0000
   645 C645      -2.937365     8.458956     4.730059 C    1 RES 0.0000
   646 C646      -2.937365     8.458956    31.073059 C    1 RES 0.0000
   647 C647      23.405635     8.458956     4.730059 C    1 RES 0.0000
   648 C648      23.405635     8.458956    31.073059 C    1 RES 0.0000
   649 C649      16.733746     3.544058    -5.232574 C    1 RES 0.0000
   650 C650      16.733746     3.544058    21.110426 C    1 RES 0.0000
   651 C651      16.733746    29.887058    -5.232574 C    1 RES 0.0000
   652 C652      16.733746    29.887058    21.110426 C    1 RES 0.0000
   653 C653      -3.562246    16.715559     5.232573 C    1 RES 0.0000
   654 C654      -3.562246    16.715559    31.575573 C    1 RES 0.0000
   655 C655      22.780754    16.715559     5.232573 C    1 RES 0.0000
   656 C656      22.780754    16.715559    31.575573 C    1 RES 0.0000
   657 C657      -3.562245     9.627443    -5.232576 C    1 RES 0.0000
   658 C658      -3.562245     9.627443    21.110424 C    1 RES 0.0000
   659 C659      22.780755     9.627443    -5.232576 C    1 RES 0.0000
   660 C660      22.780755     9.627443    21.110424 C    1 RES 0.0000
   661 C661      16.733747    -3.544060     5.232571 C    1 RES 0.0000
   662 C662      16.733747    -3.544060    31.575571 C    1 RES 0.0000
   663 C663      16.733747    22.798940     5.232571 C    1 RES 0.0000
   664 C664      16.733747    22.798940    31.575571 C    1 RES 0.0000
   665 C665      16.764189    -5.279500     3.509012 C    1 RES 0.0000
   666 C666      16.764189    -5.279500    29.852012 C    1 RES 0.0000
   667 C667      16.764189    21.063500     3.509012 C    1 RES 0.0000
   668 C668      16.764189    21.063500    29.852012 C    1 RES 0.0000
   669 C669      16.764189     5.279500    -3.509013 C    1 RES 0.0000
   670 C670      16.764189     5.279500    22.833987 C    1 RES 0.0000
   671 C671      16.764189    31.622500    -3.509013 C    1 RES 0.0000
   672 C672      16.764189    31.622500    22.833987 C    1 RES 0.0000
   673 C673      -3.592688     7.892000    -3.509013 C    1 RES 0.0000
   674 C674      -3.592688     7.892000    22.833987 C    1 RES 0.0000
   675 C675      22.750312     7.892000    -3.509013 C    1 RES 0.0000
   676 C676      22.750312     7.892000    22.833987 C    1 RES 0.0000
   677 C677      -3.592688    18.451000     3.509012 C    1 RES 0.0000
   678 C678      -3.592688    18.451000    29.852012 C    1 RES 0.0000
   679 C679      22.750312    18.451000     3.509012 C    1 RES 0.0000
   680 C680      22.750312    18.451000    29.852012 C    1 RES 0.0000
   681 C681      -5.292287    16.750394     3.514880 C    1 RES 0.0000
   682 C682      -5.292287    16.750394    29.857880 C    1 RES 0.0000
   683 C683      21.050713    16.750394     3.514880 C    1 RES 0.0000
   684 C684      21.050713    16.750394    29.857880 C    1 RES 0.0000
   685 C685      18.463788    -3.578893     3.514880 C    1 RES 0.0000
   686 C686      18.463788    -3.578893    29.857880 C    1 RES 0.0000
   687 C687      18.463788    22.764107     3.514880 C    1 RES 0.0000
   688 C688      18.463788    22.764107    29.857880 C    1 RES 0.0000
   689 C689      -5.292286     9.592607    -3.514881 C    1 RES 0.0000
   690 C690      -5.292286     9.592607    22.828119 C    1 RES 0.0000
   691 C691      21.050714     9.592607    -3.514881 C    1 RES 0.0000
   692 C692      21.050714     9.592607    22.828119 C    1 RES 0.0000
   693 C693      18.463787     3.578893    -3.514880 C    1 RES 0.0000
   694 C694      18.463787     3.578893    22.828120 C    1 RES 0.0000
   695 C695      18.463787    29.921893    -3.514880 C    1 RES 0.0000
   696 C696      18.463787    29.921893    22.828120 C    1 RES 0.0000
   697 C697      -5.232573     9.627441     3.562247 C    1 RES 0.0000
   698 C698      -5.232573     9.627441    29.905247 C    1 RES 0.0000
   699 C699      21.110427     9.627441     3.562247 C    1 RES 0.0000
   700 C700      21.110427     9.627441    29.905247 C    1 RES 0.0000
   701 C701      18.404075    -3.544058    -3.562246 C    1 RES 0.0000
   702 C702      18.404075    -3.544058    22.780754 C    1 RES 0.0000
   703 C703      18.404075    22.798942    -3.562246 C    1 RES 0.0000
   704 C704      18.404075    22.798942    22.780754 C    1 RES 0.0000
   705 C705      -5.232571    16.715560    -3.562247 C    1 RES 0.0000
   706 C706      -5.232571    16.715560    22.780753 C    1 RES 0.0000
   707 C707      21.110429    16.715560    -3.562247 C    1 RES 0.0000
   708 C708      21.110429    16.715560    22.780753 C    1 RES 0.0000
   709 C709      18.404076     3.544057     3.562245 C    1 RES 0.0000
   710 C710      18.404076     3.544057    29.905245 C    1 RES 0.0000
   711 C711      18.404076    29.887057     3.562245 C    1 RES 0.0000
   712 C712      18.404076    29.887057    29.905245 C    1 RES 0.0000
   713 C713      16.680513     5.279500     3.592688 C    1 RES 0.0000
   714 C714      16.680513     5.279500    29.935688 C    1 RES 0.0000
   715 C715      16.680513    31.622500     3.592688 C    1 RES 0.0000
   716 C716      16.680513    31.622500    29.935688 C    1 RES 0.0000
   717 C717      -3.509012     7.892000     3.592689 C    1 RES 0.0000
   718 C718      -3.509012     7.892000    29.935689 C    1 RES 0.0000
   719 C719      22.833988     7.892000     3.592689 C    1 RES 0.0000
   720 C720      22.833988     7.892000    29.935689 C    1 RES 0.0000
   721 C721      -3.509012    18.451000    -3.592689 C    1 RES 0.0000
   722 C722      -3.509012    18.451000    22.750311 C    1 RES 0.0000
   723 C723      22.833988    18.451000    -3.592689 C    1 RES 0.0000
   724 C724      22.833988    18.451000    22.750311 C    1 RES 0.0000
   725 C725      16.680513    -5.279500    -3.592689 C    1 RES 0.0000
   726 C726      16.680513    -5.279500    22.750311 C    1 RES 0.0000
   727 C727      16.680513    21.063500    -3.592689 C    1 RES 0.0000
   728 C728      16.680513    21.063500    22.750311 C    1 RES 0.0000
   729 C729      16.686380    -3.578893    -5.292287 C    1 RES 0.0000
   730 C730      16.686380    -3.578893    21.050713 C    1 RES 0.0000
   731 C731      16.686380    22.764107    -5.292287 C    1 RES 0.0000
   732 C732      16.686380    22.764107    21.050713 C    1 RES 0.0000
   733 C733      16.686381     3.578893     5.292286 C    1 RES 0.0000
   734 C734      16.686381     3.578893    31.635286 C    1 RES 0.0000
   735 C735      16.686381    29.921893     5.292286 C    1 RES 0.0000
   736 C736      16.686381    29.921893    31.635286 C    1 RES 0.0000
   737 C737      -3.514880    16.750394    -5.292288 C    1 RES 0.0000
   738 C738      -3.514880    16.750394    21.050712 C    1 RES 0.0000
   739 C739      22.828120    16.750394    -5.292288 C    1 RES 0.0000
   740 C740      22.828120    16.750394    21.050712 C    1 RES 0.0000
   741 C741      -3.514880     9.592606     5.292287 C    1 RES 0.0000
   742 C742      -3.514880     9.592606    31.635287 C    1 RES 0.0000
   743 C743      22.828120     9.592606     5.292287 C    1 RES 0.0000
   744 C744      22.828120     9.592606    31.635287 C    1 RES 0.0000
   745 C745      18.644920    15.004838     7.935698 C    1 RES 0.0000
   746 C746      -5.473419     1.833338    18.407302 C    1 RES 0.0000
   747 C747      -5.473419    28.176338    18.407302 C    1 RES 0.0000
   748 C748      20.869581     1.833338    18.407302 C    1 RES 0.0000
   749 C749      20.869581    28.176338    18.407302 C    1 RES 0.0000
   750 C750      -5.473415    -1.833338     7.935693 C    1 RES 0.0000
   751 C751      -5.473415    24.509662     7.935693 C    1 RES 0.0000
   752 C752      20.869585    -1.833338     7.935693 C    1 RES 0.0000
   753 C753      20.869585    24.509662     7.935693 C    1 RES 0.0000
   754 C754      18.644924    11.338162    18.407298 C    1 RES 0.0000
   755 C755      15.037857     7.709072    18.416644 C    1 RES 0.0000
   756 C756      15.037856    18.633923     7.926350 C    1 RES 0.0000
   757 C757      -1.866356    -5.462423     7.926350 C    1 RES 0.0000
   758 C758      -1.866356    20.880577     7.926350 C    1 RES 0.0000
   759 C759      24.476644    -5.462423     7.926350 C    1 RES 0.0000
   760 C760      24.476644    20.880577     7.926350 C    1 RES 0.0000
   761 C761      -1.866356     5.462429    18.416644 C    1 RES 0.0000
   762 C762      -1.866356    31.805429    18.416644 C    1 RES 0.0000
   763 C763      24.476644     5.462429    18.416644 C    1 RES 0.0000
   764 C764      24.476644    31.805429    18.416644 C    1 RES 0.0000
   765 C765      -5.387468     5.350621    14.940761 C    1 RES 0.0000
   766 C766      -5.387468    31.693621    14.940761 C    1 RES 0.0000
   767 C767      20.955532     5.350621    14.940761 C    1 RES 0.0000
   768 C768      20.955532    31.693621    14.940761 C    1 RES 0.0000
   769 C769      18.558976     7.820887    14.940761 C    1 RES 0.0000
   770 C770      -5.387468    -5.350621    11.402239 C    1 RES 0.0000
   771 C771      -5.387468    20.992379    11.402239 C    1 RES 0.0000
   772 C772      20.955532    -5.350621    11.402239 C    1 RES 0.0000
   773 C773      20.955532    20.992379    11.402239 C    1 RES 0.0000
   774 C774      18.558976    18.522113    11.402239 C    1 RES 0.0000
   775 C775      -5.235802    -1.833338    18.644920 C    1 RES 0.0000
   776 C776      -5.235802    24.509662    18.644920 C    1 RES 0.0000
   777 C777      21.107198    -1.833338    18.644920 C    1 RES 0.0000
   778 C778      21.107198    24.509662    18.644920 C    1 RES 0.0000
   779 C779      18.407303    11.338162     7.698080 C    1 RES 0.0000
   780 C780      -5.235798     1.833338     7.698076 C    1 RES 0.0000
   781 C781      -5.235798    28.176338     7.698076 C    1 RES 0.0000
   782 C782      21.107202     1.833338     7.698076 C    1 RES 0.0000
   783 C783      21.107202    28.176338     7.698076 C    1 RES 0.0000
   784 C784      18.407307    15.004838    18.644915 C    1 RES 0.0000
   785 C785      18.416651    18.633922    15.037856 C    1 RES 0.0000
   786 C786      -5.245143    -5.462429    15.037856 C    1 RES 0.0000
   787 C787      -5.245143    20.880571    15.037856 C    1 RES 0.0000
   788 C788      21.097857    -5.462429    15.037856 C    1 RES 0.0000
   789 C789      21.097857    20.880571    15.037856 C    1 RES 0.0000
   790 C790      -5.245144     5.462429    11.305143 C    1 RES 0.0000
   791 C791      -5.245144    31.805429    11.305143 C    1 RES 0.0000
   792 C792      21.097856     5.462429    11.305143 C    1 RES 0.0000
   793 C793      21.097856    31.805429    11.305143 C    1 RES 0.0000
   794 C794      18.416650     7.709077    11.305144 C    1 RES 0.0000
   795 C795      14.940761     7.820887     7.784024 C    1 RES 0.0000
   796 C796      14.940761    18.522121    18.558968 C    1 RES 0.0000
   797 C797      -1.769261     5.350614     7.784025 C    1 RES 0.0000
   798 C798      -1.769261    31.693614     7.784025 C    1 RES 0.0000
   799 C799      24.573739     5.350614     7.784025 C    1 RES 0.0000
   800 C800      24.573739    31.693614     7.784025 C    1 RES 0.0000
   801 C801      -1.769261    -5.350620    18.558969 C    1 RES 0.0000
   802 C802      -1.769261    20.992380    18.558969 C    1 RES 0.0000
   803 C803      24.573739    -5.350620    18.558969 C    1 RES 0.0000
   804 C804      24.573739    20.992380    18.558969 C    1 RES 0.0000
   805 C805      17.917808    16.161954     8.528299 C    1 RES 0.0000
   806 C806      -4.746308     2.990454    17.814701 C    1 RES 0.0000
   807 C807      -4.746308    29.333454    17.814701 C    1 RES 0.0000
   808 C808      21.596692     2.990454    17.814701 C    1 RES 0.0000
   809 C809      21.596692    29.333454    17.814701 C    1 RES 0.0000
   810 C810      -4.746309    -2.990454     8.528300 C    1 RES 0.0000
   811 C811      -4.746309    23.352546     8.528300 C    1 RES 0.0000
   812 C812      21.596691    -2.990454     8.528300 C    1 RES 0.0000
   813 C813      21.596691    23.352546     8.528300 C    1 RES 0.0000
   814 C814      17.917807    10.181046    17.814702 C    1 RES 0.0000
   815 C815      16.184788     8.443900    17.809343 C    1 RES 0.0000
   816 C816      16.184788    17.899101     8.533658 C    1 RES 0.0000
   817 C817      -3.013288    -4.727601     8.533659 C    1 RES 0.0000
   818 C818      -3.013288    21.615399     8.533659 C    1 RES 0.0000
   819 C819      23.329712    -4.727601     8.533659 C    1 RES 0.0000
   820 C820      23.329712    21.615399     8.533659 C    1 RES 0.0000
   821 C821      -3.013288     4.727600    17.809342 C    1 RES 0.0000
   822 C822      -3.013288    31.070600    17.809342 C    1 RES 0.0000
   823 C823      23.329712     4.727600    17.809342 C    1 RES 0.0000
   824 C824      23.329712    31.070600    17.809342 C    1 RES 0.0000
   825 C825      -4.730059     4.712544    16.108865 C    1 RES 0.0000
   826 C826      -4.730059    31.055544    16.108865 C    1 RES 0.0000
   827 C827      21.612941     4.712544    16.108865 C    1 RES 0.0000
   828 C828      21.612941    31.055544    16.108865 C    1 RES 0.0000
   829 C829      17.901558     8.458956    16.108865 C    1 RES 0.0000
   830 C830      -4.730059    -4.712544    10.234135 C    1 RES 0.0000
   831 C831      -4.730059    21.630456    10.234135 C    1 RES 0.0000
   832 C832      21.612941    -4.712544    10.234135 C    1 RES 0.0000
   833 C833      21.612941    21.630456    10.234135 C    1 RES 0.0000
   834 C834      17.901558    17.884044    10.234135 C    1 RES 0.0000
   835 C835      -4.643201    -2.990454    17.917808 C    1 RES 0.0000
   836 C836      -4.643201    23.352546    17.917808 C    1 RES 0.0000
   837 C837      21.699799    -2.990454    17.917808 C    1 RES 0.0000
   838 C838      21.699799    23.352546    17.917808 C    1 RES 0.0000
   839 C839      17.814701    10.181046     8.425192 C    1 RES 0.0000
   840 C840      -4.643202     2.990454     8.425193 C    1 RES 0.0000
   841 C841      -4.643202    29.333454     8.425193 C    1 RES 0.0000
   842 C842      21.699798     2.990454     8.425193 C    1 RES 0.0000
   843 C843      21.699798    29.333454     8.425193 C    1 RES 0.0000
   844 C844      17.814700    16.161954    17.917809 C    1 RES 0.0000
   845 C845      17.809341    17.899101    16.184788 C    1 RES 0.0000
   846 C846      -4.637843    -4.727600    16.184788 C    1 RES 0.0000
   847 C847      -4.637843    21.615400    16.184788 C    1 RES 0.0000
   848 C848      21.705157    -4.727600    16.184788 C    1 RES 0.0000
   849 C849      21.705157    21.615400    16.184788 C    1 RES 0.0000
   850 C850      -4.637843     4.727600    10.158212 C    1 RES 0.0000
   851 C851      -4.637843    31.070600    10.158212 C    1 RES 0.0000
   852 C852      21.705157     4.727600    10.158212 C    1 RES 0.0000
   853 C853      21.705157    31.070600    10.158212 C    1 RES 0.0000
   854 C854      17.809342     8.443899    10.158212 C    1 RES 0.0000
   855 C855      16.108865     8.458956     8.441442 C    1 RES 0.0000
   856 C856      16.108865    17.884044    17.901559 C    1 RES 0.0000
   857 C857      -2.937365     4.712544     8.441442 C    1 RES 0.0000
   858 C858      -2.937365    31.055544     8.441442 C    1 RES 0.0000
   859 C859      23.405635     4.712544     8.441442 C    1 RES 0.0000
   860 C860      23.405635    31.055544     8.441442 C    1 RES 0.0000
   861 C861      -2.937365    -4.712544    17.901559 C    1 RES 0.0000
   862 C862      -2.937365    21.630456    17.901559 C    1 RES 0.0000
   863 C863      23.405635    -4.712544    17.901559 C    1 RES 0.0000
   864 C864      23.405635    21.630456    17.901559 C    1 RES 0.0000
   865 C865      16.733746    16.715558     7.938926 C    1 RES 0.0000
   866 C866      -3.562246     3.544059    18.404073 C    1 RES 0.0000
   867 C867      -3.562246    29.887059    18.404073 C    1 RES 0.0000
   868 C868      22.780754     3.544059    18.404073 C    1 RES 0.0000
   869 C869      22.780754    29.887059    18.404073 C    1 RES 0.0000
   870 C870      -3.562245    -3.544057     7.938924 C    1 RES 0.0000
   871 C871      -3.562245    22.798943     7.938924 C    1 RES 0.0000
   872 C872      22.780755    -3.544057     7.938924 C    1 RES 0.0000
   873 C873      22.780755    22.798943     7.938924 C    1 RES 0.0000
   874 C874      16.733747     9.627440    18.404071 C    1 RES 0.0000
   875 C875      16.764189     7.892000    16.680512 C    1 RES 0.0000
   876 C876      16.764189    18.451000     9.662487 C    1 RES 0.0000
   877 C877      -3.592688    -5.279500     9.662487 C    1 RES 0.0000
   878 C878      -3.592688    21.063500     9.662487 C    1 RES 0.0000
   879 C879      22.750312    -5.279500     9.662487 C    1 RES 0.0000
   880 C880      22.750312    21.063500     9.662487 C    1 RES 0.0000
   881 C881      -3.592688     5.279500    16.680512 C    1 RES 0.0000
   882 C882      -3.592688    31.622500    16.680512 C    1 RES 0.0000
   883 C883      22.750312     5.279500    16.680512 C    1 RES 0.0000
   884 C884      22.750312    31.622500    16.680512 C    1 RES 0.0000
   885 C885      -5.292287     3.578894    16.686380 C    1 RES 0.0000
   886 C886      -5.292287    29.921894    16.686380 C    1 RES 0.0000
   887 C887      21.050713     3.578894    16.686380 C    1 RES 0.0000
   888 C888      21.050713    29.921894    16.686380 C    1 RES 0.0000
   889 C889      18.463788     9.592607    16.686380 C    1 RES 0.0000
   890 C890      -5.292286    -3.578893     9.656619 C    1 RES 0.0000
   891 C891      -5.292286    22.764107     9.656619 C    1 RES 0.0000
   892 C892      21.050714    -3.578893     9.656619 C    1 RES 0.0000
   893 C893      21.050714    22.764107     9.656619 C    1 RES 0.0000
   894 C894      18.463787    16.750393     9.656620 C    1 RES 0.0000
   895 C895      -5.232573    -3.544059    16.733747 C    1 RES 0.0000
   896 C896      -5.232573    22.798941    16.733747 C    1 RES 0.0000
   897 C897      21.110427    -3.544059    16.733747 C    1 RES 0.0000
   898 C898      21.110427    22.798941    16.733747 C    1 RES 0.0000
   899 C899      18.404075     9.627442     9.609254 C    1 RES 0.0000
   900 C900      -5.232571     3.544060     9.609253 C    1 RES 0.0000
   901 C901      -5.232571    29.887060     9.609253 C    1 RES 0.0000
   902 C902      21.110429     3.544060     9.609253 C    1 RES 0.0000
   903 C903      21.110429    29.887060     9.609253 C    1 RES 0.0000
   904 C904      18.404076    16.715557    16.733745 C    1 RES 0.0000
   905 C905      16.680513    18.451000    16.764188 C    1 RES 0.0000
   906 C906      -3.509012    -5.279500    16.764189 C    1 RES 0.0000
   907 C907      -3.509012    21.063500    16.764189 C    1 RES 0.0000
   908 C908      22.833988    -5.279500    16.764189 C    1 RES 0.0000
   909 C909      22.833988    21.063500    16.764189 C    1 RES 0.0000
   910 C910      -3.509012     5.279500     9.578811 C    1 RES 0.0000
   911 C911      -3.509012    31.622500     9.578811 C    1 RES 0.0000
   912 C912      22.833988     5.279500     9.578811 C    1 RES 0.0000
   913 C913      22.833988    31.622500     9.578811 C    1 RES 0.0000
   914 C914      16.680513     7.892000     9.578811 C    1 RES 0.0000
   915 C915      16.686380     9.592607     7.879213 C    1 RES 0.0000
   916 C916      16.686381    16.750393    18.463786 C    1 RES 0.0000
   917 C917      -3.514880     3.578894     7.879212 C    1 RES 0.0000
   918 C918      -3.514880    29.921894     7.879212 C    1 RES 0.0000
   919 C919      22.828120     3.578894     7.879212 C    1 RES 0.0000
   920 C920      22.828120    29.921894     7.879212 C    1 RES 0.0000
   921 C921      -3.514880    -3.578894    18.463787 C    1 RES 0.0000
   922 C922      -3.514880    22.764106    18.463787 C    1 RES 0.0000
   923 C923      22.828120    -3.578894    18.463787 C    1 RES 0.0000
   924 C924      22.828120    22.764106    18.463787 C    1 RES 0.0000
   925 C925       5.473420     1.833338     7.935698 C    1 RES 0.0000
   926 C926       5.473420    28.176338     7.935698 C    1 RES 0.0000
   927 C927      31.816420     1.833338     7.935698 C    1 RES 0.0000
   928 C928      31.816420    28.176338     7.935698 C    1 RES 0.0000
   929 C929       7.698081    15.004838    18.407302 C    1 RES 0.0000
   930 C930       7.698085    11.338162     7.935693 C    1 RES 0.0000
   931 C931       5.473424    -1.833338    18.407298 C    1 RES 0.0000
   932 C932       5.473424    24.509662    18.407298 C    1 RES 0.0000
   933 C933      31.816424    -1.833338    18.407298 C    1 RES 0.0000
   934 C934      31.816424    24.509662    18.407298 C    1 RES 0.0000
   935 C935       1.866357    -5.462428    18.416644 C    1 RES 0.0000
   936 C936       1.866357    20.880572    18.416644 C    1 RES 0.0000
   937 C937      28.209357    -5.462428    18.416644 C    1 RES 0.0000
   938 C938      28.209357    20.880572    18.416644 C    1 RES 0.0000
   939 C939       1.866356     5.462423     7.926350 C    1 RES 0.0000
   940 C940       1.866356    31.805423     7.926350 C    1 RES 0.0000
   941 C941      28.209356     5.462423     7.926350 C    1 RES 0.0000
   942 C942      28.209356    31.805423     7.926350 C    1 RES 0.0000
   943 C943      11.305144     7.709077     7.926350 C    1 RES 0.0000
   944 C944      11.305144    18.633929    18.416644 C    1 RES 0.0000
   945 C945       7.784032    18.522121    14.940761 C    1 RES 0.0000
   946 C946       5.387476    -5.350613    14.940761 C    1 RES 0.0000
   947 C947       5.387476    20.992387    14.940761 C    1 RES 0.0000
   948 C948      31.730476    -5.350613    14.940761 C    1 RES 0.0000
   949 C949      31.730476    20.992387    14.940761 C    1 RES 0.0000
   950 C950       7.784032     7.820879    11.402239 C    1 RES 0.0000
   951 C951       5.387476     5.350613    11.402239 C    1 RES 0.0000
   952 C952       5.387476    31.693613    11.402239 C    1 RES 0.0000
   953 C953      31.730476     5.350613    11.402239 C    1 RES 0.0000
   954 C954      31.730476    31.693613    11.402239 C    1 RES 0.0000
   955 C955       7.935698    11.338162    18.644920 C    1 RES 0.0000
   956 C956       5.235803    -1.833338     7.698080 C    1 RES 0.0000
   957 C957       5.235803    24.509662     7.698080 C    1 RES 0.0000
   958 C958      31.578803    -1.833338     7.698080 C    1 RES 0.0000
   959 C959      31.578803    24.509662     7.698080 C    1 RES 0.0000
   960 C960       7.935702    15.004838     7.698076 C    1 RES 0.0000
   961 C961       5.235807     1.833338    18.644915 C    1 RES 0.0000
   962 C962       5.235807    28.176338    18.644915 C    1 RES 0.0000
   963 C963      31.578807     1.833338    18.644915 C    1 RES 0.0000
   964 C964      31.578807    28.176338    18.644915 C    1 RES 0.0000
   965 C965       5.245151     5.462422    15.037856 C    1 RES 0.0000
   966 C966       5.245151    31.805422    15.037856 C    1 RES 0.0000
   967 C967      31.588151     5.462422    15.037856 C    1 RES 0.0000
   968 C968      31.588151    31.805422    15.037856 C    1 RES 0.0000
   969 C969       7.926357     7.709071    15.037856 C    1 RES 0.0000
   970 C970       7.926356    18.633929    11.305143 C    1 RES 0.0000
   971 C971       5.245150    -5.462423    11.305144 C    1 RES 0.0000
   972 C972       5.245150    20.880577    11.305144 C    1 RES 0.0000
   973 C973      31.588150    -5.462423    11.305144 C    1 RES 0.0000
   974 C974      31.588150    20.880577    11.305144 C    1 RES 0.0000
   975 C975       1.769261    -5.350613     7.784024 C    1 RES 0.0000
   976 C976       1.769261    20.992387     7.784024 C    1 RES 0.0000
   977 C977      28.112261    -5.350613     7.784024 C    1 RES 0.0000
   978 C978      28.112261    20.992387     7.784024 C    1 RES 0.0000
   979 C979       1.769261     5.350621    18.558968 C    1 RES 0.0000
   980 C980       1.769261    31.693621    18.558968 C    1 RES 0.0000
   981 C981      28.112261     5.350621    18.558968 C    1 RES 0.0000
   982 C982      28.112261    31.693621    18.558968 C    1 RES 0.0000
   983 C983      11.402239    18.522114     7.784025 C    1 RES 0.0000
   984 C984      11.402239     7.820880    18.558969 C    1 RES 0.0000
   985 C985       4.746308     2.990454     8.528299 C    1 RES 0.0000
   986 C986       4.746308    29.333454     8.528299 C    1 RES 0.0000
   987 C987      31.089308     2.990454     8.528299 C    1 RES 0.0000
   988 C988      31.089308    29.333454     8.528299 C    1 RES 0.0000
   989 C989       8.425192    16.161954    17.814701 C    1 RES 0.0000
   990 C990       8.425191    10.181046     8.528300 C    1 RES 0.0000
   991 C991       4.746307    -2.990454    17.814702 C    1 RES 0.0000
   992 C992       4.746307    23.352546    17.814702 C    1 RES 0.0000
   993 C993      31.089307    -2.990454    17.814702 C    1 RES 0.0000
   994 C994      31.089307    23.352546    17.814702 C    1 RES 0.0000
   995 C995       3.013288    -4.727600    17.809343 C    1 RES 0.0000
   996 C996       3.013288    21.615400    17.809343 C    1 RES 0.0000
   997 C997      29.356288    -4.727600    17.809343 C    1 RES 0.0000
   998 C998      29.356288    21.615400    17.809343 C    1 RES 0.0000
   999 C999       3.013288     4.727601     8.533658 C    1 RES 0.0000
  1000 C1000      3.013288    31.070601     8.533658 C    1 RES 0.0000
  1001 C1001     29.356288     4.727601     8.533658 C    1 RES 0.0000
  1002 C1002     29.356288    31.070601     8.533658 C    1 RES 0.0000
  1003 C1003     10.158212     8.443899     8.533659 C    1 RES 0.0000
  1004 C1004     10.158212    17.899100    17.809342 C    1 RES 0.0000
  1005 C1005      8.441441    17.884044    16.108865 C    1 RES 0.0000
  1006 C1006      4.730058    -4.712544    16.108865 C    1 RES 0.0000
  1007 C1007      4.730058    21.630456    16.108865 C    1 RES 0.0000
  1008 C1008     31.073058    -4.712544    16.108865 C    1 RES 0.0000
  1009 C1009     31.073058    21.630456    16.108865 C    1 RES 0.0000
  1010 C1010      8.441441     8.458956    10.234135 C    1 RES 0.0000
  1011 C1011      4.730058     4.712544    10.234135 C    1 RES 0.0000
  1012 C1012      4.730058    31.055544    10.234135 C    1 RES 0.0000
  1013 C1013     31.073058     4.712544    10.234135 C    1 RES 0.0000
  1014 C1014     31.073058    31.055544    10.234135 C    1 RES 0.0000
  1015 C1015      8.528299    10.181046    17.917808 C    1 RES 0.0000
  1016 C1016      4.643201    -2.990454     8.425192 C    1 RES 0.0000
  1017 C1017      4.643201    23.352546     8.425192 C    1 RES 0.0000
  1018 C1018     30.986201    -2.990454     8.425192 C    1 RES 0.0000
  1019 C1019     30.986201    23.352546     8.425192 C    1 RES 0.0000
  1020 C1020      8.528298    16.161954     8.425193 C    1 RES 0.0000
  1021 C1021      4.643200     2.990454    17.917809 C    1 RES 0.0000
  1022 C1022      4.643200    29.333454    17.917809 C    1 RES 0.0000
  1023 C1023     30.986200     2.990454    17.917809 C    1 RES 0.0000
  1024 C1024     30.986200    29.333454    17.917809 C    1 RES 0.0000
  1025 C1025      4.637841     4.727601    16.184788 C    1 RES 0.0000
  1026 C1026      4.637841    31.070601    16.184788 C    1 RES 0.0000
  1027 C1027     30.980841     4.727601    16.184788 C    1 RES 0.0000
  1028 C1028     30.980841    31.070601    16.184788 C    1 RES 0.0000
  1029 C1029      8.533657     8.443900    16.184788 C    1 RES 0.0000
  1030 C1030      8.533657    17.899100    10.158212 C    1 RES 0.0000
  1031 C1031      4.637842    -4.727601    10.158212 C    1 RES 0.0000
  1032 C1032      4.637842    21.615399    10.158212 C    1 RES 0.0000
  1033 C1033     30.980842    -4.727601    10.158212 C    1 RES 0.0000
  1034 C1034     30.980842    21.615399    10.158212 C    1 RES 0.0000
  1035 C1035      2.937365    -4.712544     8.441442 C    1 RES 0.0000
  1036 C1036      2.937365    21.630456     8.441442 C    1 RES 0.0000
  1037 C1037     29.280365    -4.712544     8.441442 C    1 RES 0.0000
  1038 C1038     29.280365    21.630456     8.441442 C    1 RES 0.0000
  1039 C1039      2.937365     4.712544    17.901559 C    1 RES 0.0000
  1040 C1040      2.937365    31.055544    17.901559 C    1 RES 0.0000
  1041 C1041     29.280365     4.712544    17.901559 C    1 RES 0.0000
  1042 C1042     29.280365    31.055544    17.901559 C    1 RES 0.0000
  1043 C1043     10.234135    17.884044     8.441442 C    1 RES 0.0000
  1044 C1044     10.234135     8.458956    17.901559 C    1 RES 0.0000
  1045 C1045      3.562246     3.544058     7.938926 C    1 RES 0.0000
  1046 C1046      3.562246    29.887058     7.938926 C    1 RES 0.0000
  1047 C1047     29.905246     3.544058     7.938926 C    1 RES 0.0000
  1048 C1048     29.905246    29.887058     7.938926 C    1 RES 0.0000
  1049 C1049      9.609254    16.715559    18.404073 C    1 RES 0.0000
  1050 C1050      9.609255     9.627443     7.938924 C    1 RES 0.0000
  1051 C1051      3.562247    -3.544060    18.404071 C    1 RES 0.0000
  1052 C1052      3.562247    22.798940    18.404071 C    1 RES 0.0000
  1053 C1053     29.905247    -3.544060    18.404071 C    1 RES 0.0000
  1054 C1054     29.905247    22.798940    18.404071 C    1 RES 0.0000
  1055 C1055      3.592689    -5.279500    16.680512 C    1 RES 0.0000
  1056 C1056      3.592689    21.063500    16.680512 C    1 RES 0.0000
  1057 C1057     29.935689    -5.279500    16.680512 C    1 RES 0.0000
  1058 C1058     29.935689    21.063500    16.680512 C    1 RES 0.0000
  1059 C1059      3.592689     5.279500     9.662487 C    1 RES 0.0000
  1060 C1060      3.592689    31.622500     9.662487 C    1 RES 0.0000
  1061 C1061     29.935689     5.279500     9.662487 C    1 RES 0.0000
  1062 C1062     29.935689    31.622500     9.662487 C    1 RES 0.0000
  1063 C1063      9.578812     7.892000     9.662487 C    1 RES 0.0000
  1064 C1064      9.578812    18.451000    16.680512 C    1 RES 0.0000
  1065 C1065      7.879213    16.750394    16.686380 C    1 RES 0.0000
  1066 C1066      5.292288    -3.578893    16.686380 C    1 RES 0.0000
  1067 C1067      5.292288    22.764107    16.686380 C    1 RES 0.0000
  1068 C1068     31.635288    -3.578893    16.686380 C    1 RES 0.0000
  1069 C1069     31.635288    22.764107    16.686380 C    1 RES 0.0000
  1070 C1070      7.879214     9.592607     9.656619 C    1 RES 0.0000
  1071 C1071      5.292287     3.578893     9.656620 C    1 RES 0.0000
  1072 C1072      5.292287    29.921893     9.656620 C    1 RES 0.0000
  1073 C1073     31.635287     3.578893     9.656620 C    1 RES 0.0000
  1074 C1074     31.635287    29.921893     9.656620 C    1 RES 0.0000
  1075 C1075      7.938927     9.627441    16.733747 C    1 RES 0.0000
  1076 C1076      5.232575    -3.544058     9.609254 C    1 RES 0.0000
  1077 C1077      5.232575    22.798942     9.609254 C    1 RES 0.0000
  1078 C1078     31.575575    -3.544058     9.609254 C    1 RES 0.0000
  1079 C1079     31.575575    22.798942     9.609254 C    1 RES 0.0000
  1080 C1080      7.938929    16.715560     9.609253 C    1 RES 0.0000
  1081 C1081      5.232576     3.544057    16.733745 C    1 RES 0.0000
  1082 C1082      5.232576    29.887057    16.733745 C    1 RES 0.0000
  1083 C1083     31.575576     3.544057    16.733745 C    1 RES 0.0000
  1084 C1084     31.575576    29.887057    16.733745 C    1 RES 0.0000
  1085 C1085      3.509013     5.279500    16.764188 C    1 RES 0.0000
  1086 C1086      3.509013    31.622500    16.764188 C    1 RES 0.0000
  1087 C1087     29.852013     5.279500    16.764188 C    1 RES 0.0000
  1088 C1088     29.852013    31.622500    16.764188 C    1 RES 0.0000
  1089 C1089      9.662488     7.892000    16.764189 C    1 RES 0.0000
  1090 C1090      9.662488    18.451000     9.578811 C    1 RES 0.0000
  1091 C1091      3.509013    -5.279500     9.578811 C    1 RES 0.0000
  1092 C1092      3.509013    21.063500     9.578811 C    1 RES 0.0000
  1093 C1093     29.852013    -5.279500     9.578811 C    1 RES 0.0000
  1094 C1094     29.852013    21.063500     9.578811 C    1 RES 0.0000
  1095 C1095      3.514880    -3.578893     7.879213 C    1 RES 0.0000
  1096 C1096      3.514880    22.764107     7.879213 C    1 RES 0.0000
  1097 C1097     29.857880    -3.578893     7.879213 C    1 RES 0.0000
  1098 C1098     29.857880    22.764107     7.879213 C    1 RES 0.0000
  1099 C1099      3.514881     3.578893    18.463786 C    1 RES 0.0000
  1100 C1100      3.514881    29.921893    18.463786 C    1 RES 0.0000
  1101 C1101     29.857881     3.578893    18.463786 C    1 RES 0.0000
  1102 C1102     29.857881    29.921893    18.463786 C    1 RES 0.0000
  1103 C1103      9.656620    16.750394     7.879212 C    1 RES 0.0000
  1104 C1104      9.656620     9.592606    18.463787 C    1 RES 0.0000
  1105 C1105      5.473420    15.004838    -5.235802 C    1 RES 0.0000
  1106 C1106      5.473420    15.004838    21.107198 C    1 RES 0.0000
  1107 C1107     31.816420    15.004838    -5.235802 C    1 RES 0.0000
  1108 C1108     31.816420    15.004838    21.107198 C    1 RES 0.0000
  1109 C1109      7.698081     1.833338     5.235802 C    1 RES 0.0000
  1110 C1110      7.698081     1.833338    31.578802 C    1 RES 0.0000
  1111 C1111      7.698081    28.176338     5.235802 C    1 RES 0.0000
  1112 C1112      7.698081    28.176338    31.578802 C    1 RES 0.0000
  1113 C1113      7.698085    -1.833338    -5.235807 C    1 RES 0.0000
  1114 C1114      7.698085    -1.833338    21.107193 C    1 RES 0.0000
  1115 C1115      7.698085    24.509662    -5.235807 C    1 RES 0.0000
  1116 C1116      7.698085    24.509662    21.107193 C    1 RES 0.0000
  1117 C1117      5.473424    11.338162     5.235798 C    1 RES 0.0000
  1118 C1118      5.473424    11.338162    31.578798 C    1 RES 0.0000
  1119 C1119     31.816424    11.338162     5.235798 C    1 RES 0.0000
  1120 C1120     31.816424    11.338162    31.578798 C    1 RES 0.0000
  1121 C1121      1.866357     7.709072     5.245144 C    1 RES 0.0000
  1122 C1122      1.866357     7.709072    31.588144 C    1 RES 0.0000
  1123 C1123     28.209357     7.709072     5.245144 C    1 RES 0.0000
  1124 C1124     28.209357     7.709072    31.588144 C    1 RES 0.0000
  1125 C1125      1.866356    18.633923    -5.245150 C    1 RES 0.0000
  1126 C1126      1.866356    18.633923    21.097850 C    1 RES 0.0000
  1127 C1127     28.209356    18.633923    -5.245150 C    1 RES 0.0000
  1128 C1128     28.209356    18.633923    21.097850 C    1 RES 0.0000
  1129 C1129     11.305144    -5.462423    -5.245150 C    1 RES 0.0000
  1130 C1130     11.305144    -5.462423    21.097850 C    1 RES 0.0000
  1131 C1131     11.305144    20.880577    -5.245150 C    1 RES 0.0000
  1132 C1132     11.305144    20.880577    21.097850 C    1 RES 0.0000
  1133 C1133     11.305144     5.462429     5.245144 C    1 RES 0.0000
  1134 C1134     11.305144     5.462429    31.588144 C    1 RES 0.0000
  1135 C1135     11.305144    31.805429     5.245144 C    1 RES 0.0000
  1136 C1136     11.305144    31.805429    31.588144 C    1 RES 0.0000
  1137 C1137      7.784032     5.350621     1.769261 C    1 RES 0.0000
  1138 C1138      7.784032     5.350621    28.112261 C    1 RES 0.0000
  1139 C1139      7.784032    31.693621     1.769261 C    1 RES 0.0000
  1140 C1140      7.784032    31.693621    28.112261 C    1 RES 0.0000
  1141 C1141      5.387476     7.820887     1.769261 C    1 RES 0.0000
  1142 C1142      5.387476     7.820887    28.112261 C    1 RES 0.0000
  1143 C1143     31.730476     7.820887     1.769261 C    1 RES 0.0000
  1144 C1144     31.730476     7.820887    28.112261 C    1 RES 0.0000
  1145 C1145      7.784032    -5.350621    -1.769261 C    1 RES 0.0000
  1146 C1146      7.784032    -5.350621    24.573739 C    1 RES 0.0000
  1147 C1147      7.784032    20.992379    -1.769261 C    1 RES 0.0000
  1148 C1148      7.784032    20.992379    24.573739 C    1 RES 0.0000
  1149 C1149      5.387476    18.522113    -1.769261 C    1 RES 0.0000
  1150 C1150      5.387476    18.522113    24.573739 C    1 RES 0.0000
  1151 C1151     31.730476    18.522113    -1.769261 C    1 RES 0.0000
  1152 C1152     31.730476    18.522113    24.573739 C    1 RES 0.0000
  1153 C1153      7.935698    -1.833338     5.473420 C    1 RES 0.0000
  1154 C1154      7.935698    -1.833338    31.816420 C    1 RES 0.0000
  1155 C1155      7.935698    24.509662     5.473420 C    1 RES 0.0000
  1156 C1156      7.935698    24.509662    31.816420 C    1 RES 0.0000
  1157 C1157      5.235803    11.338162    -5.473420 C    1 RES 0.0000
  1158 C1158      5.235803    11.338162    20.869580 C    1 RES 0.0000
  1159 C1159     31.578803    11.338162    -5.473420 C    1 RES 0.0000
  1160 C1160     31.578803    11.338162    20.869580 C    1 RES 0.0000
  1161 C1161      7.935702     1.833338    -5.473424 C    1 RES 0.0000
  1162 C1162      7.935702     1.833338    20.869576 C    1 RES 0.0000
  1163 C1163      7.935702    28.176338    -5.473424 C    1 RES 0.0000
  1164 C1164      7.935702    28.176338    20.869576 C    1 RES 0.0000
  1165 C1165      5.235807    15.004838     5.473415 C    1 RES 0.0000
  1166 C1166      5.235807    15.004838    31.816415 C    1 RES 0.0000
  1167 C1167     31.578807    15.004838     5.473415 C    1 RES 0.0000
  1168 C1168     31.578807    15.004838    31.816415 C    1 RES 0.0000
  1169 C1169      5.245151    18.633922     1.866356 C    1 RES 0.0000
  1170 C1170      5.245151    18.633922    28.209356 C    1 RES 0.0000
  1171 C1171     31.588151    18.633922     1.866356 C    1 RES 0.0000
  1172 C1172     31.588151    18.633922    28.209356 C    1 RES 0.0000
  1173 C1173      7.926357    -5.462429     1.866356 C    1 RES 0.0000
  1174 C1174      7.926357    -5.462429    28.209356 C    1 RES 0.0000
  1175 C1175      7.926357    20.880571     1.866356 C    1 RES 0.0000
  1176 C1176      7.926357    20.880571    28.209356 C    1 RES 0.0000
  1177 C1177      7.926356     5.462429    -1.866357 C    1 RES 0.0000
  1178 C1178      7.926356     5.462429    24.476643 C    1 RES 0.0000
  1179 C1179      7.926356    31.805429    -1.866357 C    1 RES 0.0000
  1180 C1180      7.926356    31.805429    24.476643 C    1 RES 0.0000
  1181 C1181      5.245150     7.709077    -1.866356 C    1 RES 0.0000
  1182 C1182      5.245150     7.709077    24.476644 C    1 RES 0.0000
  1183 C1183     31.588150     7.709077    -1.866356 C    1 RES 0.0000
  1184 C1184     31.588150     7.709077    24.476644 C    1 RES 0.0000
  1185 C1185      1.769261     7.820887    -5.387476 C    1 RES 0.0000
  1186 C1186      1.769261     7.820887    20.955524 C    1 RES 0.0000
  1187 C1187     28.112261     7.820887    -5.387476 C    1 RES 0.0000
  1188 C1188     28.112261     7.820887    20.955524 C    1 RES 0.0000
  1189 C1189      1.769261    18.522121     5.387468 C    1 RES 0.0000
  1190 C1190      1.769261    18.522121    31.730468 C    1 RES 0.0000
  1191 C1191     28.112261    18.522121     5.387468 C    1 RES 0.0000
  1192 C1192     28.112261    18.522121    31.730468 C    1 RES 0.0000
  1193 C1193     11.402239     5.350614    -5.387475 C    1 RES 0.0000
  1194 C1194     11.402239     5.350614    20.955525 C    1 RES 0.0000
  1195 C1195     11.402239    31.693614    -5.387475 C    1 RES 0.0000
  1196 C1196     11.402239    31.693614    20.955525 C    1 RES 0.0000
  1197 C1197     11.402239    -5.350620     5.387469 C    1 RES 0.0000
  1198 C1198     11.402239    -5.350620    31.730469 C    1 RES 0.0000
  1199 C1199     11.402239    20.992380     5.387469 C    1 RES 0.0000
  1200 C1200     11.402239    20.992380    31.730469 C    1 RES 0.0000
  1201 C1201      4.746308    16.161954    -4.643201 C    1 RES 0.0000
  1202 C1202      4.746308    16.161954    21.699799 C    1 RES 0.0000
  1203 C1203     31.089308    16.161954    -4.643201 C    1 RES 0.0000
  1204 C1204     31.089308    16.161954    21.699799 C    1 RES 0.0000
  1205 C1205      8.425192     2.990454     4.643201 C    1 RES 0.0000
  1206 C1206      8.425192     2.990454    30.986201 C    1 RES 0.0000
  1207 C1207      8.425192    29.333454     4.643201 C    1 RES 0.0000
  1208 C1208      8.425192    29.333454    30.986201 C    1 RES 0.0000
  1209 C1209      8.425191    -2.990454    -4.643200 C    1 RES 0.0000
  1210 C1210      8.425191    -2.990454    21.699800 C    1 RES 0.0000
  1211 C1211      8.425191    23.352546    -4.643200 C    1 RES 0.0000
  1212 C1212      8.425191    23.352546    21.699800 C    1 RES 0.0000
  1213 C1213      4.746307    10.181046     4.643202 C    1 RES 0.0000
  1214 C1214      4.746307    10.181046    30.986202 C    1 RES 0.0000
  1215 C1215     31.089307    10.181046     4.643202 C    1 RES 0.0000
  1216 C1216     31.089307    10.181046    30.986202 C    1 RES 0.0000
  1217 C1217      3.013288     8.443900     4.637843 C    1 RES 0.0000
  1218 C1218      3.013288     8.443900    30.980843 C    1 RES 0.0000
  1219 C1219     29.356288     8.443900     4.637843 C    1 RES 0.0000
  1220 C1220     29.356288     8.443900    30.980843 C    1 RES 0.0000
  1221 C1221      3.013288    17.899101    -4.637842 C    1 RES 0.0000
  1222 C1222      3.013288    17.899101    21.705158 C    1 RES 0.0000
  1223 C1223     29.356288    17.899101    -4.637842 C    1 RES 0.0000
  1224 C1224     29.356288    17.899101    21.705158 C    1 RES 0.0000
  1225 C1225     10.158212    -4.727601    -4.637841 C    1 RES 0.0000
  1226 C1226     10.158212    -4.727601    21.705159 C    1 RES 0.0000
  1227 C1227     10.158212    21.615399    -4.637841 C    1 RES 0.0000
  1228 C1228     10.158212    21.615399    21.705159 C    1 RES 0.0000
  1229 C1229     10.158212     4.727600     4.637842 C    1 RES 0.0000
  1230 C1230     10.158212     4.727600    30.980842 C    1 RES 0.0000
  1231 C1231     10.158212    31.070600     4.637842 C    1 RES 0.0000
  1232 C1232     10.158212    31.070600    30.980842 C    1 RES 0.0000
  1233 C1233      8.441441     4.712544     2.937365 C    1 RES 0.0000
  1234 C1234      8.441441     4.712544    29.280365 C    1 RES 0.0000
  1235 C1235      8.441441    31.055544     2.937365 C    1 RES 0.0000
  1236 C1236      8.441441    31.055544    29.280365 C    1 RES 0.0000
  1237 C1237      4.730058     8.458956     2.937365 C    1 RES 0.0000
  1238 C1238      4.730058     8.458956    29.280365 C    1 RES 0.0000
  1239 C1239     31.073058     8.458956     2.937365 C    1 RES 0.0000
  1240 C1240     31.073058     8.458956    29.280365 C    1 RES 0.0000
  1241 C1241      8.441441    -4.712544    -2.937365 C    1 RES 0.0000
  1242 C1242      8.441441    -4.712544    23.405635 C    1 RES 0.0000
  1243 C1243      8.441441    21.630456    -2.937365 C    1 RES 0.0000
  1244 C1244      8.441441    21.630456    23.405635 C    1 RES 0.0000
  1245 C1245      4.730058    17.884044    -2.937365 C    1 RES 0.0000
  1246 C1246      4.730058    17.884044    23.405635 C    1 RES 0.0000
  1247 C1247     31.073058    17.884044    -2.937365 C    1 RES 0.0000
  1248 C1248     31.073058    17.884044    23.405635 C    1 RES 0.0000
  1249 C1249      8.528299    -2.990454     4.746308 C    1 RES 0.0000
  1250 C1250      8.528299    -2.990454    31.089308 C    1 RES 0.0000
  1251 C1251      8.528299    23.352546     4.746308 C    1 RES 0.0000
  1252 C1252      8.528299    23.352546    31.089308 C    1 RES 0.0000
  1253 C1253      4.643201    10.181046    -4.746308 C    1 RES 0.0000
  1254 C1254      4.643201    10.181046    21.596692 C    1 RES 0.0000
  1255 C1255     30.986201    10.181046    -4.746308 C    1 RES 0.0000
  1256 C1256     30.986201    10.181046    21.596692 C    1 RES 0.0000
  1257 C1257      8.528298     2.990454    -4.746307 C    1 RES 0.0000
  1258 C1258      8.528298     2.990454    21.596693 C    1 RES 0.0000
  1259 C1259      8.528298    29.333454    -4.746307 C    1 RES 0.0000
  1260 C1260      8.528298    29.333454    21.596693 C    1 RES 0.0000
  1261 C1261      4.643200    16.161954     4.746309 C    1 RES 0.0000
  1262 C1262      4.643200    16.161954    31.089309 C    1 RES 0.0000
  1263 C1263     30.986200    16.161954     4.746309 C    1 RES 0.0000
  1264 C1264     30.986200    16.161954    31.089309 C    1 RES 0.0000
  1265 C1265      4.637841    17.899101     3.013288 C    1 RES 0.0000
  1266 C1266      4.637841    17.899101    29.356288 C    1 RES 0.0000
  1267 C1267     30.980841    17.899101     3.013288 C    1 RES 0.0000
  1268 C1268     30.980841    17.899101    29.356288 C    1 RES 0.0000
  1269 C1269      8.533657    -4.727600     3.013288 C    1 RES 0.0000
  1270 C1270      8.533657    -4.727600    29.356288 C    1 RES 0.0000
  1271 C1271      8.533657    21.615400     3.013288 C    1 RES 0.0000
  1272 C1272      8.533657    21.615400    29.356288 C    1 RES 0.0000
  1273 C1273      8.533657     4.727600    -3.013288 C    1 RES 0.0000
  1274 C1274      8.533657     4.727600    23.329712 C    1 RES 0.0000
  1275 C1275      8.533657    31.070600    -3.013288 C    1 RES 0.0000
  1276 C1276      8.533657    31.070600    23.329712 C    1 RES 0.0000
  1277 C1277      4.637842     8.443899    -3.013288 C    1 RES 0.0000
  1278 C1278      4.637842     8.443899    23.329712 C    1 RES 0.0000
  1279 C1279     30.980842     8.443899    -3.013288 C    1 RES 0.0000
  1280 C1280     30.980842     8.443899    23.329712 C    1 RES 0.0000
  1281 C1281      2.937365     8.458956    -4.730058 C    1 RES 0.0000
  1282 C1282      2.937365     8.458956    21.612942 C    1 RES 0.0000
  1283 C1283     29.280365     8.458956    -4.730058 C    1 RES 0.0000
  1284 C1284     29.280365     8.458956    21.612942 C    1 RES 0.0000
  1285 C1285      2.937365    17.884044     4.730059 C    1 RES 0.0000
  1286 C1286      2.937365    17.884044    31.073059 C    1 RES 0.0000
  1287 C1287     29.280365    17.884044     4.730059 C    1 RES 0.0000
  1288 C1288     29.280365    17.884044    31.073059 C    1 RES 0.0000
  1289 C1289     10.234135     4.712544    -4.730058 C    1 RES 0.0000
  1290 C1290     10.234135     4.712544    21.612942 C    1 RES 0.0000
  1291 C1291     10.234135    31.055544    -4.730058 C    1 RES 0.0000
  1292 C1292     10.234135    31.055544    21.612942 C    1 RES 0.0000
  1293 C1293     10.234135    -4.712544     4.730059 C    1 RES 0.0000
  1294 C1294     10.234135    -4.712544    31.073059 C    1 RES 0.0000
  1295 C1295     10.234135    21.630456     4.730059 C    1 RES 0.0000
  1296 C1296     10.234135    21.630456    31.073059 C    1 RES 0.0000
  1297 C1297      3.562246    16.715558    -5.232574 C    1 RES 0.0000
  1298 C1298      3.562246    16.715558    21.110426 C    1 RES 0.0000
  1299 C1299     29.905246    16.715558    -5.232574 C    1 RES 0.0000
  1300 C1300     29.905246    16.715558    21.110426 C    1 RES 0.0000
  1301 C1301      9.609254     3.544059     5.232573 C    1 RES 0.0000
  1302 C1302      9.609254     3.544059    31.575573 C    1 RES 0.0000
  1303 C1303      9.609254    29.887059     5.232573 C    1 RES 0.0000
  1304 C1304      9.609254    29.887059    31.575573 C    1 RES 0.0000
  1305 C1305      9.609255    -3.544057    -5.232576 C    1 RES 0.0000
  1306 C1306      9.609255    -3.544057    21.110424 C    1 RES 0.0000
  1307 C1307      9.609255    22.798943    -5.232576 C    1 RES 0.0000
  1308 C1308      9.609255    22.798943    21.110424 C    1 RES 0.0000
  1309 C1309      3.562247     9.627440     5.232571 C    1 RES 0.0000
  1310 C1310      3.562247     9.627440    31.575571 C    1 RES 0.0000
  1311 C1311     29.905247     9.627440     5.232571 C    1 RES 0.0000
  1312 C1312     29.905247     9.627440    31.575571 C    1 RES 0.0000
  1313 C1313      3.592689     7.892000     3.509012 C    1 RES 0.0000
  1314 C1314      3.592689     7.892000    29.852012 C    1 RES 0.0000
  1315 C1315     29.935689     7.892000     3.509012 C    1 RES 0.0000
  1316 C1316     29.935689     7.892000    29.852012 C    1 RES 0.0000
  1317 C1317      3.592689    18.451000    -3.509013 C    1 RES 0.0000
  1318 C1318      3.592689    18.451000    22.833987 C    1 RES 0.0000
  1319 C1319     29.935689    18.451000    -3.509013 C    1 RES 0.0000
  1320 C1320     29.935689    18.451000    22.833987 C    1 RES 0.0000
  1321 C1321      9.578812    -5.279500    -3.509013 C    1 RES 0.0000
  1322 C1322      9.578812    -5.279500    22.833987 C    1 RES 0.0000
  1323 C1323      9.578812    21.063500    -3.509013 C    1 RES 0.0000
  1324 C1324      9.578812    21.063500    22.833987 C    1 RES 0.0000
  1325 C1325      9.578812     5.279500     3.509012 C    1 RES 0.0000
  1326 C1326      9.578812     5.279500    29.852012 C    1 RES 0.0000
  1327 C1327      9.578812    31.622500     3.509012 C    1 RES 0.0000
  1328 C1328      9.578812    31.622500    29.852012 C    1 RES 0.0000
  1329 C1329      7.879213     3.578894     3.514880 C    1 RES 0.0000
  1330 C1330      7.879213     3.578894    29.857880 C    1 RES 0.0000
  1331 C1331      7.879213    29.921894     3.514880 C    1 RES 0.0000
  1332 C1332      7.879213    29.921894    29.857880 C    1 RES 0.0000
  1333 C1333      5.292288     9.592607     3.514880 C    1 RES 0.0000
  1334 C1334      5.292288     9.592607    29.857880 C    1 RES 0.0000
  1335 C1335     31.635288     9.592607     3.514880 C    1 RES 0.0000
  1336 C1336     31.635288     9.592607    29.857880 C    1 RES 0.0000
  1337 C1337      7.879214    -3.578893    -3.514881 C    1 RES 0.0000
  1338 C1338      7.879214    -3.578893    22.828119 C    1 RES 0.0000
  1339 C1339      7.879214    22.764107    -3.514881 C    1 RES 0.0000
  1340 C1340      7.879214    22.764107    22.828119 C    1 RES 0.0000
  1341 C1341      5.292287    16.750393    -3.514880 C    1 RES 0.0000
  1342 C1342      5.292287    16.750393    22.828120 C    1 RES 0.0000
  1343 C1343     31.635287    16.750393    -3.514880 C    1 RES 0.0000
  1344 C1344     31.635287    16.750393    22.828120 C    1 RES 0.0000
  1345 C1345      7.938927    -3.544059     3.562247 C    1 RES 0.0000
  1346 C1346      7.938927    -3.544059    29.905247 C    1 RES 0.0000
  1347 C1347      7.938927    22.798941     3.562247 C    1 RES 0.0000
  1348 C1348      7.938927    22.798941    29.905247 C    1 RES 0.0000
  1349 C1349      5.232575     9.627442    -3.562246 C    1 RES 0.0000
  1350 C1350      5.232575     9.627442    22.780754 C    1 RES 0.0000
  1351 C1351     31.575575     9.627442    -3.562246 C    1 RES 0.0000
  1352 C1352     31.575575     9.627442    22.780754 C    1 RES 0.0000
  1353 C1353      7.938929     3.544060    -3.562247 C    1 RES 0.0000
  1354 C1354      7.938929     3.544060    22.780753 C    1 RES 0.0000
  1355 C1355      7.938929    29.887060    -3.562247 C    1 RES 0.0000
  1356 C1356      7.938929    29.887060    22.780753 C    1 RES 0.0000
  1357 C1357      5.232576    16.715557     3.562245 C    1 RES 0.0000
  1358 C1358      5.232576    16.715557    29.905245 C    1 RES 0.0000
  1359 C1359     31.575576    16.715557     3.562245 C    1 RES 0.0000
  1360 C1360     31.575576    16.715557    29.905245 C    1 RES 0.0000
  1361 C1361      3.509013    18.451000     3.592688 C    1 RES 0.0000
  1362 C1362      3.509013    18.451000    29.935688 C    1 RES 0.0000
  1363 C1363     29.852013    18.451000     3.592688 C    1 RES 0.0000
  1364 C1364     29.852013    18.451000    29.935688 C    1 RES 0.0000
  1365 C1365      9.662488    -5.279500     3.592689 C    1 RES 0.0000
  1366 C1366      9.662488    -5.279500    29.935689 C    1 RES 0.0000
  1367 C1367      9.662488    21.063500     3.592689 C    1 RES 0.0000
  1368 C1368      9.662488    21.063500    29.935689 C    1 RES 0.0000
  1369 C1369      9.662488     5.279500    -3.592689 C    1 RES 0.0000
  1370 C1370      9.662488     5.279500    22.750311 C    1 RES 0.0000
  1371 C1371      9.662488    31.622500    -3.592689 C    1 RES 0.0000
  1372 C1372      9.662488    31.622500    22.750311 C    1 RES 0.0000
  1373 C1373      3.509013     7.892000    -3.592689 C    1 RES 0.0000
  1374 C1374      3.509013     7.892000    22.750311 C    1 RES 0.0000
  1375 C1375     29.852013     7.892000    -3.592689 C    1 RES 0.0000
  1376 C1376     29.852013     7.892000    22.750311 C    1 RES 0.0000
  1377 C1377      3.514880     9.592607    -5.292287 C    1 RES 0.0000
  1378 C1378      3.514880     9.592607    21.050713 C    1 RES 0.0000
  1379 C1379     29.857880     9.592607    -5.292287 C    1 RES 0.0000
  1380 C1380     29.857880     9.592607    21.050713 C    1 RES 0.0000
  1381 C1381      3.514881    16.750393     5.292286 C    1 RES 0.0000
  1382 C1382      3.514881    16.750393    31.635286 C    1 RES 0.0000
  1383 C1383     29.857881    16.750393     5.292286 C    1 RES 0.0000
  1384 C1384     29.857881    16.750393    31.635286 C    1 RES 0.0000
  1385 C1385      9.656620     3.578894    -5.292288 C    1 RES 0.0000
  1386 C1386      9.656620     3.578894    21.050712 C    1 RES 0.0000
  1387 C1387      9.656620    29.921894    -5.292288 C    1 RES 0.0000
  1388 C1388      9.656620    29.921894    21.050712 C    1 RES 0.0000
  1389 C1389      9.656620    -3.578894     5.292287 C    1 RES 0.0000
  1390 C1390      9.656620    -3.578894    31.635287 C    1 RES 0.0000
  1391 C1391      9.656620    22.764106     5.292287 C    1 RES 0.0000
  1392 C1392      9.656620    22.764106    31.635287 C    1 RES 0.0000
  1393 N1393     16.159558     2.980013    20.055274 N    1 RES 0.0000
  1394 N1394     16.159558    29.323013    20.055274 N    1 RES 0.0000
  1395 N1395     -2.988057    16.151513     6.287727 N    1 RES 0.0000
  1396 N1396     23.354943    16.151513     6.287727 N    1 RES 0.0000
  1397 N1397     -2.988058    10.191486    20.055276 N    1 RES 0.0000
  1398 N1398     23.354942    10.191486    20.055276 N    1 RES 0.0000
  1399 N1399     16.159557    -2.980012     6.287728 N    1 RES 0.0000
  1400 N1400     16.159557    23.362988     6.287728 N    1 RES 0.0000
  1401 N1401     20.055273    10.191487     2.988057 N    1 RES 0.0000
  1402 N1402     20.055273    10.191487    29.331057 N    1 RES 0.0000
  1403 N1403     19.459225    -2.980013    -2.988058 N    1 RES 0.0000
  1404 N1404     19.459225    -2.980013    23.354942 N    1 RES 0.0000
  1405 N1405     19.459225    23.362987    -2.988058 N    1 RES 0.0000
  1406 N1406     19.459225    23.362987    23.354942 N    1 RES 0.0000
  1407 N1407     20.055272    16.151512    -2.988056 N    1 RES 0.0000
  1408 N1408     20.055272    16.151512    23.354944 N    1 RES 0.0000
  1409 N1409     19.459224     2.980014     2.988058 N    1 RES 0.0000
  1410 N1410     19.459224     2.980014    29.331058 N    1 RES 0.0000
  1411 N1411     19.459224    29.323014     2.988058 N    1 RES 0.0000
  1412 N1412     19.459224    29.323014    29.331058 N    1 RES 0.0000
  1413 N1413     16.159558    16.151513     6.883774 N    1 RES 0.0000
  1414 N1414     -2.988057     2.980013    19.459227 N    1 RES 0.0000
  1415 N1415     -2.988057    29.323013    19.459227 N    1 RES 0.0000
  1416 N1416     23.354943     2.980013    19.459227 N    1 RES 0.0000
  1417 N1417     23.354943    29.323013    19.459227 N    1 RES 0.0000
  1418 N1418     -2.988058    -2.980014     6.883776 N    1 RES 0.0000
  1419 N1419     -2.988058    23.362986     6.883776 N    1 RES 0.0000
  1420 N1420     23.354942    -2.980014     6.883776 N    1 RES 0.0000
  1421 N1421     23.354942    23.362986     6.883776 N    1 RES 0.0000
  1422 N1422     16.159557    10.191488    19.459228 N    1 RES 0.0000
  1423 N1423     20.055273    -2.980013    16.159557 N    1 RES 0.0000
  1424 N1424     20.055273    23.362987    16.159557 N    1 RES 0.0000
  1425 N1425     19.459225    10.191487    10.183442 N    1 RES 0.0000
  1426 N1426     20.055272     2.980012    10.183444 N    1 RES 0.0000
  1427 N1427     20.055272    29.323012    10.183444 N    1 RES 0.0000
  1428 N1428     19.459224    16.151514    16.159558 N    1 RES 0.0000
  1429 N1429      2.988058     2.980013     6.883774 N    1 RES 0.0000
  1430 N1430      2.988058    29.323013     6.883774 N    1 RES 0.0000
  1431 N1431     29.331058     2.980013     6.883774 N    1 RES 0.0000
  1432 N1432     29.331058    29.323013     6.883774 N    1 RES 0.0000
  1433 N1433     10.183443    16.151513    19.459227 N    1 RES 0.0000
  1434 N1434     10.183442    10.191486     6.883776 N    1 RES 0.0000
  1435 N1435      2.988057    -2.980012    19.459228 N    1 RES 0.0000
  1436 N1436      2.988057    23.362988    19.459228 N    1 RES 0.0000
  1437 N1437     29.331057    -2.980012    19.459228 N    1 RES 0.0000
  1438 N1438     29.331057    23.362988    19.459228 N    1 RES 0.0000
  1439 N1439      6.883773    10.191487    16.159557 N    1 RES 0.0000
  1440 N1440      6.287725    -2.980013    10.183442 N    1 RES 0.0000
  1441 N1441      6.287725    23.362987    10.183442 N    1 RES 0.0000
  1442 N1442      6.883772    16.151512    10.183444 N    1 RES 0.0000
  1443 N1443      6.287724     2.980014    16.159558 N    1 RES 0.0000
  1444 N1444      6.287724    29.323014    16.159558 N    1 RES 0.0000
  1445 N1445      2.988058    16.151513    20.055274 N    1 RES 0.0000
  1446 N1446     29.331058    16.151513    20.055274 N    1 RES 0.0000
  1447 N1447     10.183443     2.980013     6.287727 N    1 RES 0.0000
  1448 N1448     10.183443    29.323013     6.287727 N    1 RES 0.0000
  1449 N1449     10.183442    -2.980014    20.055276 N    1 RES 0.0000
  1450 N1450     10.183442    23.362986    20.055276 N    1 RES 0.0000
  1451 N1451      2.988057    10.191488     6.287728 N    1 RES 0.0000
  1452 N1452     29.331057    10.191488     6.287728 N    1 RES 0.0000
  1453 N1453      6.883773    -2.980013     2.988057 N    1 RES 0.0000
  1454 N1454      6.883773    -2.980013    29.331057 N    1 RES 0.0000
  1455 N1455      6.883773    23.362987     2.988057 N    1 RES 0.0000
  1456 N1456      6.883773    23.362987    29.331057 N    1 RES 0.0000
  1457 N1457      6.287725    10.191487    -2.988058 N    1 RES 0.0000
  1458 N1458      6.287725    10.191487    23.354942 N    1 RES 0.0000
  1459 N1459      6.883772     2.980012    -2.988056 N    1 RES 0.0000
  1460 N1460      6.883772     2.980012    23.354944 N    1 RES 0.0000
  1461 N1461      6.883772    29.323012    -2.988056 N    1 RES 0.0000
  1462 N1462      6.883772    29.323012    23.354944 N    1 RES 0.0000
  1463 N1463      6.287724    16.151514     2.988058 N    1 RES 0.0000
  1464 N1464      6.287724    16.151514    29.331058 N    1 RES 0.0000
  1465 O1465     18.174180     1.315800    20.050226 O    1 RES 0.0000
  1466 O1466     18.174180    27.658800    20.050226 O    1 RES 0.0000
  1467 O1467     -5.002679    14.487300     6.292773 O    1 RES 0.0000
  1468 O1468     21.340321    14.487300     6.292773 O    1 RES 0.0000
  1469 O1469     -5.002681    11.855699    20.050229 O    1 RES 0.0000
  1470 O1470     21.340319    11.855699    20.050229 O    1 RES 0.0000
  1471 O1471     18.174178    -1.315798     6.292776 O    1 RES 0.0000
  1472 O1472     18.174178    25.027202     6.292776 O    1 RES 0.0000
  1473 O1473     14.650938    19.824028     4.687301 O    1 RES 0.0000
  1474 O1474     14.650938    19.824028    31.030301 O    1 RES 0.0000
  1475 O1475     14.650937     6.518976    -4.687300 O    1 RES 0.0000
  1476 O1476     14.650937     6.518976    21.655700 O    1 RES 0.0000
  1477 O1477     -1.479436     6.652524    -4.687299 O    1 RES 0.0000
  1478 O1478     -1.479436     6.652524    21.655701 O    1 RES 0.0000
  1479 O1479     24.863564     6.652524    -4.687299 O    1 RES 0.0000
  1480 O1480     24.863564     6.652524    21.655701 O    1 RES 0.0000
  1481 O1481     -1.479438    19.690471     4.687301 O    1 RES 0.0000
  1482 O1482     -1.479438    19.690471    31.030301 O    1 RES 0.0000
  1483 O1483     24.863562    19.690471     4.687301 O    1 RES 0.0000
  1484 O1484     24.863562    19.690471    31.030301 O    1 RES 0.0000
  1485 O1485     19.904354    17.994251     1.326304 O    1 RES 0.0000
  1486 O1486     19.904354    17.994251    27.669304 O    1 RES 0.0000
  1487 O1487     19.610141    -4.822753     1.326306 O    1 RES 0.0000
  1488 O1488     19.610141    -4.822753    27.669306 O    1 RES 0.0000
  1489 O1489     19.610141    21.520247     1.326306 O    1 RES 0.0000
  1490 O1490     19.610141    21.520247    27.669306 O    1 RES 0.0000
  1491 O1491     19.904354     8.348749    -1.326304 O    1 RES 0.0000
  1492 O1492     19.904354     8.348749    25.016696 O    1 RES 0.0000
  1493 O1493     19.610141     4.822753    -1.326307 O    1 RES 0.0000
  1494 O1494     19.610141     4.822753    25.016693 O    1 RES 0.0000
  1495 O1495     19.610141    31.165753    -1.326307 O    1 RES 0.0000
  1496 O1496     19.610141    31.165753    25.016693 O    1 RES 0.0000
  1497 O1497     20.050227    11.855701     5.002679 O    1 RES 0.0000
  1498 O1498     20.050227    11.855701    31.345679 O    1 RES 0.0000
  1499 O1499     19.464273    -1.315800    -5.002680 O    1 RES 0.0000
  1500 O1500     19.464273    -1.315800    21.340320 O    1 RES 0.0000
  1501 O1501     19.464273    25.027200    -5.002680 O    1 RES 0.0000
  1502 O1502     19.464273    25.027200    21.340320 O    1 RES 0.0000
  1503 O1503     20.050224    14.487298    -5.002678 O    1 RES 0.0000
  1504 O1504     20.050224    14.487298    21.340322 O    1 RES 0.0000
  1505 O1505     19.464271     1.315801     5.002681 O    1 RES 0.0000
  1506 O1506     19.464271     1.315801    31.345681 O    1 RES 0.0000
  1507 O1507     19.464271    27.658801     5.002681 O    1 RES 0.0000
  1508 O1508     19.464271    27.658801    31.345681 O    1 RES 0.0000
  1509 O1509     17.858799     6.518976     1.479436 O    1 RES 0.0000
  1510 O1510     17.858799     6.518976    27.822436 O    1 RES 0.0000
  1511 O1511     -4.687301     6.652529     1.479438 O    1 RES 0.0000
  1512 O1512     -4.687301     6.652529    27.822438 O    1 RES 0.0000
  1513 O1513     21.655699     6.652529     1.479438 O    1 RES 0.0000
  1514 O1514     21.655699     6.652529    27.822438 O    1 RES 0.0000
  1515 O1515     -4.687302    19.690472    -1.479438 O    1 RES 0.0000
  1516 O1516     -4.687302    19.690472    24.863562 O    1 RES 0.0000
  1517 O1517     21.655698    19.690472    -1.479438 O    1 RES 0.0000
  1518 O1518     21.655698    19.690472    24.863562 O    1 RES 0.0000
  1519 O1519     17.858799    19.824024    -1.479437 O    1 RES 0.0000
  1520 O1520     17.858799    19.824024    24.863563 O    1 RES 0.0000
  1521 O1521     14.497806    -4.822753    19.904358 O    1 RES 0.0000
  1522 O1522     14.497806    21.520247    19.904358 O    1 RES 0.0000
  1523 O1523     14.497804     4.822751     6.438646 O    1 RES 0.0000
  1524 O1524     14.497804    31.165751     6.438646 O    1 RES 0.0000
  1525 O1525     -1.326306    17.994253    19.904358 O    1 RES 0.0000
  1526 O1526     25.016694    17.994253    19.904358 O    1 RES 0.0000
  1527 O1527     -1.326304     8.348749     6.438646 O    1 RES 0.0000
  1528 O1528     25.016696     8.348749     6.438646 O    1 RES 0.0000
  1529 O1529     -4.682259    11.738294     6.529375 O    1 RES 0.0000
  1530 O1530     21.660741    11.738294     6.529375 O    1 RES 0.0000
  1531 O1531     17.853759    -1.433206    19.813625 O    1 RES 0.0000
  1532 O1532     17.853759    24.909794    19.813625 O    1 RES 0.0000
  1533 O1533     17.853757     1.433205     6.529378 O    1 RES 0.0000
  1534 O1534     17.853757    27.776205     6.529378 O    1 RES 0.0000
  1535 O1535     -4.682261    14.604707    19.813628 O    1 RES 0.0000
  1536 O1536     21.660739    14.604707    19.813628 O    1 RES 0.0000
  1537 O1537     -1.313452    19.564661    -4.848417 O    1 RES 0.0000
  1538 O1538     -1.313452    19.564661    21.494583 O    1 RES 0.0000
  1539 O1539     25.029548    19.564661    -4.848417 O    1 RES 0.0000
  1540 O1540     25.029548    19.564661    21.494583 O    1 RES 0.0000
  1541 O1541     -1.313454     6.778343     4.848419 O    1 RES 0.0000
  1542 O1542     -1.313454     6.778343    31.191419 O    1 RES 0.0000
  1543 O1543     25.029546     6.778343     4.848419 O    1 RES 0.0000
  1544 O1544     25.029546     6.778343    31.191419 O    1 RES 0.0000
  1545 O1545     14.484954     6.393156     4.848419 O    1 RES 0.0000
  1546 O1546     14.484954     6.393156    31.191419 O    1 RES 0.0000
  1547 O1547     14.484952    19.949839    -4.848417 O    1 RES 0.0000
  1548 O1548     14.484952    19.949839    21.494583 O    1 RES 0.0000
  1549 O1549     19.483580    -5.007406    -1.361270 O    1 RES 0.0000
  1550 O1550     19.483580    -5.007406    24.981730 O    1 RES 0.0000
  1551 O1551     19.483580    21.335594    -1.361270 O    1 RES 0.0000
  1552 O1552     19.483580    21.335594    24.981730 O    1 RES 0.0000
  1553 O1553     20.030916    18.178904    -1.361268 O    1 RES 0.0000
  1554 O1554     20.030916    18.178904    24.981732 O    1 RES 0.0000
  1555 O1555     19.483579     5.007406     1.361269 O    1 RES 0.0000
  1556 O1556     19.483579     5.007406    27.704269 O    1 RES 0.0000
  1557 O1557     19.483579    31.350406     1.361269 O    1 RES 0.0000
  1558 O1558     19.483579    31.350406    27.704269 O    1 RES 0.0000
  1559 O1559     20.030916     8.164096     1.361267 O    1 RES 0.0000
  1560 O1560     20.030916     8.164096    27.704267 O    1 RES 0.0000
  1561 O1561     19.700875     1.433206    -4.682259 O    1 RES 0.0000
  1562 O1562     19.700875     1.433206    21.660741 O    1 RES 0.0000
  1563 O1563     19.700875    27.776206    -4.682259 O    1 RES 0.0000
  1564 O1564     19.700875    27.776206    21.660741 O    1 RES 0.0000
  1565 O1565     19.813625    14.604706     4.682259 O    1 RES 0.0000
  1566 O1566     19.813625    14.604706    31.025259 O    1 RES 0.0000
  1567 O1567     19.700872    -1.433207     4.682261 O    1 RES 0.0000
  1568 O1568     19.700872    -1.433207    31.025261 O    1 RES 0.0000
  1569 O1569     19.700872    24.909793     4.682261 O    1 RES 0.0000
  1570 O1570     19.700872    24.909793    31.025261 O    1 RES 0.0000
  1571 O1571     19.813622    11.738295    -4.682257 O    1 RES 0.0000
  1572 O1572     19.813622    11.738295    21.660743 O    1 RES 0.0000
  1573 O1573     -4.848419     6.778344    -1.313454 O    1 RES 0.0000
  1574 O1574     -4.848419     6.778344    25.029546 O    1 RES 0.0000
  1575 O1575     21.494581     6.778344    -1.313454 O    1 RES 0.0000
  1576 O1576     21.494581     6.778344    25.029546 O    1 RES 0.0000
  1577 O1577     18.019917     6.393161    -1.313452 O    1 RES 0.0000
  1578 O1578     18.019917     6.393161    25.029548 O    1 RES 0.0000
  1579 O1579     18.019917    19.949839     1.313452 O    1 RES 0.0000
  1580 O1580     18.019917    19.949839    27.656452 O    1 RES 0.0000
  1581 O1581     -4.848419    19.564656     1.313454 O    1 RES 0.0000
  1582 O1582     -4.848419    19.564656    27.656454 O    1 RES 0.0000
  1583 O1583     21.494581    19.564656     1.313454 O    1 RES 0.0000
  1584 O1584     21.494581    19.564656    27.656454 O    1 RES 0.0000
  1585 O1585     -1.361267    18.178904     6.312084 O    1 RES 0.0000
  1586 O1586     24.981733    18.178904     6.312084 O    1 RES 0.0000
  1587 O1587     -1.361269     8.164094    20.030921 O    1 RES 0.0000
  1588 O1588     24.981731     8.164094    20.030921 O    1 RES 0.0000
  1589 O1589     14.532768    -5.007404     6.312084 O    1 RES 0.0000
  1590 O1590     14.532768    21.335596     6.312084 O    1 RES 0.0000
  1591 O1591     14.532770     5.007406    20.030920 O    1 RES 0.0000
  1592 O1592     14.532770    31.350406    20.030920 O    1 RES 0.0000
  1593 O1593     18.174180    14.487300     6.878726 O    1 RES 0.0000
  1594 O1594     -5.002679     1.315800    19.464273 O    1 RES 0.0000
  1595 O1595     -5.002679    27.658800    19.464273 O    1 RES 0.0000
  1596 O1596     21.340321     1.315800    19.464273 O    1 RES 0.0000
  1597 O1597     21.340321    27.658800    19.464273 O    1 RES 0.0000
  1598 O1598     -5.002681    -1.315801     6.878729 O    1 RES 0.0000
  1599 O1599     -5.002681    25.027199     6.878729 O    1 RES 0.0000
  1600 O1600     21.340319    -1.315801     6.878729 O    1 RES 0.0000
  1601 O1601     21.340319    25.027199     6.878729 O    1 RES 0.0000
  1602 O1602     18.174178    11.855702    19.464276 O    1 RES 0.0000
  1603 O1603     14.650938     6.652528    17.858801 O    1 RES 0.0000
  1604 O1604     14.650937    19.690476     8.484200 O    1 RES 0.0000
  1605 O1605     -1.479436    19.824024     8.484201 O    1 RES 0.0000
  1606 O1606     24.863564    19.824024     8.484201 O    1 RES 0.0000
  1607 O1607     -1.479438     6.518971    17.858801 O    1 RES 0.0000
  1608 O1608     24.863562     6.518971    17.858801 O    1 RES 0.0000
  1609 O1609     19.904354     4.822751    14.497804 O    1 RES 0.0000
  1610 O1610     19.904354    31.165751    14.497804 O    1 RES 0.0000
  1611 O1611     19.610141     8.348747    14.497806 O    1 RES 0.0000
  1612 O1612     19.904354    -4.822751    11.845196 O    1 RES 0.0000
  1613 O1613     19.904354    21.520249    11.845196 O    1 RES 0.0000
  1614 O1614     19.610141    17.994253    11.845193 O    1 RES 0.0000
  1615 O1615     20.050227    -1.315799    18.174179 O    1 RES 0.0000
  1616 O1616     20.050227    25.027201    18.174179 O    1 RES 0.0000
  1617 O1617     19.464273    11.855700     8.168820 O    1 RES 0.0000
  1618 O1618     20.050224     1.315798     8.168822 O    1 RES 0.0000
  1619 O1619     20.050224    27.658798     8.168822 O    1 RES 0.0000
  1620 O1620     19.464271    14.487301    18.174181 O    1 RES 0.0000
  1621 O1621     17.858799    19.690476    14.650936 O    1 RES 0.0000
  1622 O1622     -4.687301    19.824029    14.650938 O    1 RES 0.0000
  1623 O1623     21.655699    19.824029    14.650938 O    1 RES 0.0000
  1624 O1624     -4.687302     6.518972    11.692062 O    1 RES 0.0000
  1625 O1625     21.655698     6.518972    11.692062 O    1 RES 0.0000
  1626 O1626     17.858799     6.652524    11.692063 O    1 RES 0.0000
  1627 O1627     14.497806     8.348747     6.732858 O    1 RES 0.0000
  1628 O1628     14.497804    17.994251    19.610146 O    1 RES 0.0000
  1629 O1629     -1.326306     4.822753     6.732858 O    1 RES 0.0000
  1630 O1630     -1.326306    31.165753     6.732858 O    1 RES 0.0000
  1631 O1631     25.016694     4.822753     6.732858 O    1 RES 0.0000
  1632 O1632     25.016694    31.165753     6.732858 O    1 RES 0.0000
  1633 O1633     -1.326304    -4.822751    19.610146 O    1 RES 0.0000
  1634 O1634     -1.326304    21.520249    19.610146 O    1 RES 0.0000
  1635 O1635     25.016696    -4.822751    19.610146 O    1 RES 0.0000
  1636 O1636     25.016696    21.520249    19.610146 O    1 RES 0.0000
  1637 O1637     -4.682259    -1.433206    19.700875 O    1 RES 0.0000
  1638 O1638     -4.682259    24.909794    19.700875 O    1 RES 0.0000
  1639 O1639     21.660741    -1.433206    19.700875 O    1 RES 0.0000
  1640 O1640     21.660741    24.909794    19.700875 O    1 RES 0.0000
  1641 O1641     17.853759    11.738294     6.642125 O    1 RES 0.0000
  1642 O1642     17.853757    14.604705    19.700878 O    1 RES 0.0000
  1643 O1643     -4.682261     1.433207     6.642128 O    1 RES 0.0000
  1644 O1644     -4.682261    27.776207     6.642128 O    1 RES 0.0000
  1645 O1645     21.660739     1.433207     6.642128 O    1 RES 0.0000
  1646 O1646     21.660739    27.776207     6.642128 O    1 RES 0.0000
  1647 O1647     -1.313452     6.393161     8.323083 O    1 RES 0.0000
  1648 O1648     25.029548     6.393161     8.323083 O    1 RES 0.0000
  1649 O1649     -1.313454    19.949843    18.019919 O    1 RES 0.0000
  1650 O1650     25.029546    19.949843    18.019919 O    1 RES 0.0000
  1651 O1651     14.484954    19.564656    18.019919 O    1 RES 0.0000
  1652 O1652     14.484952     6.778339     8.323083 O    1 RES 0.0000
  1653 O1653     19.483580     8.164094    11.810230 O    1 RES 0.0000
  1654 O1654     20.030916     5.007404    11.810232 O    1 RES 0.0000
  1655 O1655     20.030916    31.350404    11.810232 O    1 RES 0.0000
  1656 O1656     19.483579    18.178906    14.532769 O    1 RES 0.0000
  1657 O1657     20.030916    -5.007404    14.532767 O    1 RES 0.0000
  1658 O1658     20.030916    21.335596    14.532767 O    1 RES 0.0000
  1659 O1659     19.700875    14.604706     8.489241 O    1 RES 0.0000
  1660 O1660     19.813625     1.433206    17.853759 O    1 RES 0.0000
  1661 O1661     19.813625    27.776206    17.853759 O    1 RES 0.0000
  1662 O1662     19.700872    11.738293    17.853761 O    1 RES 0.0000
  1663 O1663     19.813622    -1.433205     8.489243 O    1 RES 0.0000
  1664 O1664     19.813622    24.909795     8.489243 O    1 RES 0.0000
  1665 O1665     -4.848419    19.949844    11.858046 O    1 RES 0.0000
  1666 O1666     21.494581    19.949844    11.858046 O    1 RES 0.0000
  1667 O1667     18.019917    19.564661    11.858048 O    1 RES 0.0000
  1668 O1668     18.019917     6.778339    14.484952 O    1 RES 0.0000
  1669 O1669     -4.848419     6.393156    14.484954 O    1 RES 0.0000
  1670 O1670     21.494581     6.393156    14.484954 O    1 RES 0.0000
  1671 O1671     -1.361267     5.007404    19.483584 O    1 RES 0.0000
  1672 O1672     -1.361267    31.350404    19.483584 O    1 RES 0.0000
  1673 O1673     24.981733     5.007404    19.483584 O    1 RES 0.0000
  1674 O1674     24.981733    31.350404    19.483584 O    1 RES 0.0000
  1675 O1675     -1.361269    -5.007406     6.859421 O    1 RES 0.0000
  1676 O1676     -1.361269    21.335594     6.859421 O    1 RES 0.0000
  1677 O1677     24.981731    -5.007406     6.859421 O    1 RES 0.0000
  1678 O1678     24.981731    21.335594     6.859421 O    1 RES 0.0000
  1679 O1679     14.532768     8.164096    19.483584 O    1 RES 0.0000
  1680 O1680     14.532770    18.178906     6.859420 O    1 RES 0.0000
  1681 O1681      5.002680     1.315800     6.878726 O    1 RES 0.0000
  1682 O1682      5.002680    27.658800     6.878726 O    1 RES 0.0000
  1683 O1683     31.345680     1.315800     6.878726 O    1 RES 0.0000
  1684 O1684     31.345680    27.658800     6.878726 O    1 RES 0.0000
  1685 O1685      8.168821    14.487300    19.464273 O    1 RES 0.0000
  1686 O1686      8.168819    11.855699     6.878729 O    1 RES 0.0000
  1687 O1687      5.002678    -1.315798    19.464276 O    1 RES 0.0000
  1688 O1688      5.002678    25.027202    19.464276 O    1 RES 0.0000
  1689 O1689     31.345678    -1.315798    19.464276 O    1 RES 0.0000
  1690 O1690     31.345678    25.027202    19.464276 O    1 RES 0.0000
  1691 O1691      1.479438    19.824028    17.858801 O    1 RES 0.0000
  1692 O1692     27.822438    19.824028    17.858801 O    1 RES 0.0000
  1693 O1693      1.479437     6.518976     8.484200 O    1 RES 0.0000
  1694 O1694     27.822437     6.518976     8.484200 O    1 RES 0.0000
  1695 O1695     11.692064     6.652524     8.484201 O    1 RES 0.0000
  1696 O1696     11.692062    19.690471    17.858801 O    1 RES 0.0000
  1697 O1697      6.732854    17.994251    14.497804 O    1 RES 0.0000
  1698 O1698      6.438641    -4.822753    14.497806 O    1 RES 0.0000
  1699 O1699      6.438641    21.520247    14.497806 O    1 RES 0.0000
  1700 O1700      6.732854     8.348749    11.845196 O    1 RES 0.0000
  1701 O1701      6.438641     4.822753    11.845193 O    1 RES 0.0000
  1702 O1702      6.438641    31.165753    11.845193 O    1 RES 0.0000
  1703 O1703      6.878727    11.855701    18.174179 O    1 RES 0.0000
  1704 O1704      6.292773    -1.315800     8.168820 O    1 RES 0.0000
  1705 O1705      6.292773    25.027200     8.168820 O    1 RES 0.0000
  1706 O1706      6.878724    14.487298     8.168822 O    1 RES 0.0000
  1707 O1707      6.292771     1.315801    18.174181 O    1 RES 0.0000
  1708 O1708      6.292771    27.658801    18.174181 O    1 RES 0.0000
  1709 O1709      4.687299     6.518976    14.650936 O    1 RES 0.0000
  1710 O1710     31.030299     6.518976    14.650936 O    1 RES 0.0000
  1711 O1711      8.484199     6.652529    14.650938 O    1 RES 0.0000
  1712 O1712      8.484198    19.690472    11.692062 O    1 RES 0.0000
  1713 O1713      4.687299    19.824024    11.692063 O    1 RES 0.0000
  1714 O1714     31.030299    19.824024    11.692063 O    1 RES 0.0000
  1715 O1715      1.326306    -4.822753     6.732858 O    1 RES 0.0000
  1716 O1716      1.326306    21.520247     6.732858 O    1 RES 0.0000
  1717 O1717     27.669306    -4.822753     6.732858 O    1 RES 0.0000
  1718 O1718     27.669306    21.520247     6.732858 O    1 RES 0.0000
  1719 O1719      1.326304     4.822751    19.610146 O    1 RES 0.0000
  1720 O1720      1.326304    31.165751    19.610146 O    1 RES 0.0000
  1721 O1721     27.669304     4.822751    19.610146 O    1 RES 0.0000
  1722 O1722     27.669304    31.165751    19.610146 O    1 RES 0.0000
  1723 O1723     11.845194    17.994253     6.732858 O    1 RES 0.0000
  1724 O1724     11.845196     8.348749    19.610146 O    1 RES 0.0000
  1725 O1725      8.489241    11.738294    19.700875 O    1 RES 0.0000
  1726 O1726      4.682259    -1.433206     6.642125 O    1 RES 0.0000
  1727 O1727      4.682259    24.909794     6.642125 O    1 RES 0.0000
  1728 O1728     31.025259    -1.433206     6.642125 O    1 RES 0.0000
  1729 O1729     31.025259    24.909794     6.642125 O    1 RES 0.0000
  1730 O1730      4.682257     1.433205    19.700878 O    1 RES 0.0000
  1731 O1731      4.682257    27.776205    19.700878 O    1 RES 0.0000
  1732 O1732     31.025257     1.433205    19.700878 O    1 RES 0.0000
  1733 O1733     31.025257    27.776205    19.700878 O    1 RES 0.0000
  1734 O1734      8.489239    14.604707     6.642128 O    1 RES 0.0000
  1735 O1735     11.858048    19.564661     8.323083 O    1 RES 0.0000
  1736 O1736     11.858046     6.778343    18.019919 O    1 RES 0.0000
  1737 O1737      1.313454     6.393156    18.019919 O    1 RES 0.0000
  1738 O1738     27.656454     6.393156    18.019919 O    1 RES 0.0000
  1739 O1739      1.313452    19.949839     8.323083 O    1 RES 0.0000
  1740 O1740     27.656452    19.949839     8.323083 O    1 RES 0.0000
  1741 O1741      6.312080    -5.007406    11.810230 O    1 RES 0.0000
  1742 O1742      6.312080    21.335594    11.810230 O    1 RES 0.0000
  1743 O1743      6.859416    18.178904    11.810232 O    1 RES 0.0000
  1744 O1744      6.312079     5.007406    14.532769 O    1 RES 0.0000
  1745 O1745      6.312079    31.350406    14.532769 O    1 RES 0.0000
  1746 O1746      6.859416     8.164096    14.532767 O    1 RES 0.0000
  1747 O1747      6.529375     1.433206     8.489241 O    1 RES 0.0000
  1748 O1748      6.529375    27.776206     8.489241 O    1 RES 0.0000
  1749 O1749      6.642125    14.604706    17.853759 O    1 RES 0.0000
  1750 O1750      6.529372    -1.433207    17.853761 O    1 RES 0.0000
  1751 O1751      6.529372    24.909793    17.853761 O    1 RES 0.0000
  1752 O1752      6.642122    11.738295     8.489243 O    1 RES 0.0000
  1753 O1753      8.323081     6.778344    11.858046 O    1 RES 0.0000
  1754 O1754      4.848417     6.393161    11.858048 O    1 RES 0.0000
  1755 O1755     31.191417     6.393161    11.858048 O    1 RES 0.0000
  1756 O1756      4.848417    19.949839    14.484952 O    1 RES 0.0000
  1757 O1757     31.191417    19.949839    14.484952 O    1 RES 0.0000
  1758 O1758      8.323081    19.564656    14.484954 O    1 RES 0.0000
  1759 O1759     11.810233    18.178904    19.483584 O    1 RES 0.0000
  1760 O1760     11.810231     8.164094     6.859421 O    1 RES 0.0000
  1761 O1761      1.361268    -5.007404    19.483584 O    1 RES 0.0000
  1762 O1762      1.361268    21.335596    19.483584 O    1 RES 0.0000
  1763 O1763     27.704268    -5.007404    19.483584 O    1 RES 0.0000
  1764 O1764     27.704268    21.335596    19.483584 O    1 RES 0.0000
  1765 O1765      1.361270     5.007406     6.859420 O    1 RES 0.0000
  1766 O1766      1.361270    31.350406     6.859420 O    1 RES 0.0000
  1767 O1767     27.704270     5.007406     6.859420 O    1 RES 0.0000
  1768 O1768     27.704270    31.350406     6.859420 O    1 RES 0.0000
  1769 O1769      5.002680    14.487300    20.050226 O    1 RES 0.0000
  1770 O1770     31.345680    14.487300    20.050226 O    1 RES 0.0000
  1771 O1771      8.168821     1.315800     6.292773 O    1 RES 0.0000
  1772 O1772      8.168821    27.658800     6.292773 O    1 RES 0.0000
  1773 O1773      8.168819    -1.315801    20.050229 O    1 RES 0.0000
  1774 O1774      8.168819    25.027199    20.050229 O    1 RES 0.0000
  1775 O1775      5.002678    11.855702     6.292776 O    1 RES 0.0000
  1776 O1776     31.345678    11.855702     6.292776 O    1 RES 0.0000
  1777 O1777      1.479438     6.652528     4.687301 O    1 RES 0.0000
  1778 O1778      1.479438     6.652528    31.030301 O    1 RES 0.0000
  1779 O1779     27.822438     6.652528     4.687301 O    1 RES 0.0000
  1780 O1780     27.822438     6.652528    31.030301 O    1 RES 0.0000
  1781 O1781      1.479437    19.690476    -4.687300 O    1 RES 0.0000
  1782 O1782      1.479437    19.690476    21.655700 O    1 RES 0.0000
  1783 O1783     27.822437    19.690476    -4.687300 O    1 RES 0.0000
  1784 O1784     27.822437    19.690476    21.655700 O    1 RES 0.0000
  1785 O1785     11.692064    19.824024    -4.687299 O    1 RES 0.0000
  1786 O1786     11.692064    19.824024    21.655701 O    1 RES 0.0000
  1787 O1787     11.692062     6.518971     4.687301 O    1 RES 0.0000
  1788 O1788     11.692062     6.518971    31.030301 O    1 RES 0.0000
  1789 O1789      6.732854     4.822751     1.326304 O    1 RES 0.0000
  1790 O1790      6.732854     4.822751    27.669304 O    1 RES 0.0000
  1791 O1791      6.732854    31.165751     1.326304 O    1 RES 0.0000
  1792 O1792      6.732854    31.165751    27.669304 O    1 RES 0.0000
  1793 O1793      6.438641     8.348747     1.326306 O    1 RES 0.0000
  1794 O1794      6.438641     8.348747    27.669306 O    1 RES 0.0000
  1795 O1795      6.732854    -4.822751    -1.326304 O    1 RES 0.0000
  1796 O1796      6.732854    -4.822751    25.016696 O    1 RES 0.0000
  1797 O1797      6.732854    21.520249    -1.326304 O    1 RES 0.0000
  1798 O1798      6.732854    21.520249    25.016696 O    1 RES 0.0000
  1799 O1799      6.438641    17.994253    -1.326307 O    1 RES 0.0000
  1800 O1800      6.438641    17.994253    25.016693 O    1 RES 0.0000
  1801 O1801      6.878727    -1.315799     5.002679 O    1 RES 0.0000
  1802 O1802      6.878727    -1.315799    31.345679 O    1 RES 0.0000
  1803 O1803      6.878727    25.027201     5.002679 O    1 RES 0.0000
  1804 O1804      6.878727    25.027201    31.345679 O    1 RES 0.0000
  1805 O1805      6.292773    11.855700    -5.002680 O    1 RES 0.0000
  1806 O1806      6.292773    11.855700    21.340320 O    1 RES 0.0000
  1807 O1807      6.878724     1.315798    -5.002678 O    1 RES 0.0000
  1808 O1808      6.878724     1.315798    21.340322 O    1 RES 0.0000
  1809 O1809      6.878724    27.658798    -5.002678 O    1 RES 0.0000
  1810 O1810      6.878724    27.658798    21.340322 O    1 RES 0.0000
  1811 O1811      6.292771    14.487301     5.002681 O    1 RES 0.0000
  1812 O1812      6.292771    14.487301    31.345681 O    1 RES 0.0000
  1813 O1813      4.687299    19.690476     1.479436 O    1 RES 0.0000
  1814 O1814      4.687299    19.690476    27.822436 O    1 RES 0.0000
  1815 O1815     31.030299    19.690476     1.479436 O    1 RES 0.0000
  1816 O1816     31.030299    19.690476    27.822436 O    1 RES 0.0000
  1817 O1817      8.484199    19.824029     1.479438 O    1 RES 0.0000
  1818 O1818      8.484199    19.824029    27.822438 O    1 RES 0.0000
  1819 O1819      8.484198     6.518972    -1.479438 O    1 RES 0.0000
  1820 O1820      8.484198     6.518972    24.863562 O    1 RES 0.0000
  1821 O1821      4.687299     6.652524    -1.479437 O    1 RES 0.0000
  1822 O1822      4.687299     6.652524    24.863563 O    1 RES 0.0000
  1823 O1823     31.030299     6.652524    -1.479437 O    1 RES 0.0000
  1824 O1824     31.030299     6.652524    24.863563 O    1 RES 0.0000
  1825 O1825      1.326306     8.348747    19.904358 O    1 RES 0.0000
  1826 O1826     27.669306     8.348747    19.904358 O    1 RES 0.0000
  1827 O1827      1.326304    17.994251     6.438646 O    1 RES 0.0000
  1828 O1828     27.669304    17.994251     6.438646 O    1 RES 0.0000
  1829 O1829     11.845194     4.822753    19.904358 O    1 RES 0.0000
  1830 O1830     11.845194    31.165753    19.904358 O    1 RES 0.0000
  1831 O1831     11.845196    -4.822751     6.438646 O    1 RES 0.0000
  1832 O1832     11.845196    21.520249     6.438646 O    1 RES 0.0000
  1833 O1833      8.489241    -1.433206     6.529375 O    1 RES 0.0000
  1834 O1834      8.489241    24.909794     6.529375 O    1 RES 0.0000
  1835 O1835      4.682259    11.738294    19.813625 O    1 RES 0.0000
  1836 O1836     31.025259    11.738294    19.813625 O    1 RES 0.0000
  1837 O1837      4.682257    14.604705     6.529378 O    1 RES 0.0000
  1838 O1838     31.025257    14.604705     6.529378 O    1 RES 0.0000
  1839 O1839      8.489239     1.433207    19.813628 O    1 RES 0.0000
  1840 O1840      8.489239    27.776207    19.813628 O    1 RES 0.0000
  1841 O1841     11.858048     6.393161    -4.848417 O    1 RES 0.0000
  1842 O1842     11.858048     6.393161    21.494583 O    1 RES 0.0000
  1843 O1843     11.858046    19.949843     4.848419 O    1 RES 0.0000
  1844 O1844     11.858046    19.949843    31.191419 O    1 RES 0.0000
  1845 O1845      1.313454    19.564656     4.848419 O    1 RES 0.0000
  1846 O1846      1.313454    19.564656    31.191419 O    1 RES 0.0000
  1847 O1847     27.656454    19.564656     4.848419 O    1 RES 0.0000
  1848 O1848     27.656454    19.564656    31.191419 O    1 RES 0.0000
  1849 O1849      1.313452     6.778339    -4.848417 O    1 RES 0.0000
  1850 O1850      1.313452     6.778339    21.494583 O    1 RES 0.0000
  1851 O1851     27.656452     6.778339    -4.848417 O    1 RES 0.0000
  1852 O1852     27.656452     6.778339    21.494583 O    1 RES 0.0000
  1853 O1853      6.312080     8.164094    -1.361270 O    1 RES 0.0000
  1854 O1854      6.312080     8.164094    24.981730 O    1 RES 0.0000
  1855 O1855      6.859416     5.007404    -1.361268 O    1 RES 0.0000
  1856 O1856      6.859416     5.007404    24.981732 O    1 RES 0.0000
  1857 O1857      6.859416    31.350404    -1.361268 O    1 RES 0.0000
  1858 O1858      6.859416    31.350404    24.981732 O    1 RES 0.0000
  1859 O1859      6.312079    18.178906     1.361269 O    1 RES 0.0000
  1860 O1860      6.312079    18.178906    27.704269 O    1 RES 0.0000
  1861 O1861      6.859416    -5.007404     1.361267 O    1 RES 0.0000
  1862 O1862      6.859416    -5.007404    27.704267 O    1 RES 0.0000
  1863 O1863      6.859416    21.335596     1.361267 O    1 RES 0.0000
  1864 O1864      6.859416    21.335596    27.704267 O    1 RES 0.0000
  1865 O1865      6.529375    14.604706    -4.682259 O    1 RES 0.0000
  1866 O1866      6.529375    14.604706    21.660741 O    1 RES 0.0000
  1867 O1867      6.642125     1.433206     4.682259 O    1 RES 0.0000
  1868 O1868      6.642125     1.433206    31.025259 O    1 RES 0.0000
  1869 O1869      6.642125    27.776206     4.682259 O    1 RES 0.0000
  1870 O1870      6.642125    27.776206    31.025259 O    1 RES 0.0000
  1871 O1871      6.529372    11.738293     4.682261 O    1 RES 0.0000
  1872 O1872      6.529372    11.738293    31.025261 O    1 RES 0.0000
  1873 O1873      6.642122    -1.433205    -4.682257 O    1 RES 0.0000
  1874 O1874      6.642122    -1.433205    21.660743 O    1 RES 0.0000
  1875 O1875      6.642122    24.909795    -4.682257 O    1 RES 0.0000
  1876 O1876      6.642122    24.909795    21.660743 O    1 RES 0.0000
  1877 O1877      8.323081    19.949844    -1.313454 O    1 RES 0.0000
  1878 O1878      8.323081    19.949844    25.029546 O    1 RES 0.0000
  1879 O1879      4.848417    19.564661    -1.313452 O    1 RES 0.0000
  1880 O1880      4.848417    19.564661    25.029548 O    1 RES 0.0000
  1881 O1881     31.191417    19.564661    -1.313452 O    1 RES 0.0000
  1882 O1882     31.191417    19.564661    25.029548 O    1 RES 0.0000
  1883 O1883      4.848417     6.778339     1.313452 O    1 RES 0.0000
  1884 O1884      4.848417     6.778339    27.656452 O    1 RES 0.0000
  1885 O1885     31.191417     6.778339     1.313452 O    1 RES 0.0000
  1886 O1886     31.191417     6.778339    27.656452 O    1 RES 0.0000
  1887 O1887      8.323081     6.393156     1.313454 O    1 RES 0.0000
  1888 O1888      8.323081     6.393156    27.656454 O    1 RES 0.0000
  1889 O1889     11.810233     5.007404     6.312084 O    1 RES 0.0000
  1890 O1890     11.810233    31.350404     6.312084 O    1 RES 0.0000
  1891 O1891     11.810231    -5.007406    20.030921 O    1 RES 0.0000
  1892 O1892     11.810231    21.335594    20.030921 O    1 RES 0.0000
  1893 O1893      1.361268     8.164096     6.312084 O    1 RES 0.0000
  1894 O1894     27.704268     8.164096     6.312084 O    1 RES 0.0000
  1895 O1895      1.361270    18.178906    20.030920 O    1 RES 0.0000
  1896 O1896     27.704270    18.178906    20.030920 O    1 RES 0.0000
@<TRIPOS>BOND
     1      1   1465 1
     2      1   1531 1
     3      1   1615 1
     4      1   1660 1
     5      2   1466 1
     6      2   1532 1
     7      2   1616 1
     8      2   1661 1
     9      3   1467 1
    10      3   1529 1
    11      4   1468 1
    12      4   1530 1
    13      4   1617 1
    14      4   1659 1
    15      5   1598 1
    16      5   1643 1
    17      7   1599 1
    18      7   1644 1
    19      9   1505 1
    20      9   1567 1
    21      9   1600 1
    22      9   1645 1
    23     10   1506 1
    24     10   1568 1
    25     11   1507 1
    26     11   1569 1
    27     11   1601 1
    28     11   1646 1
    29     12   1508 1
    30     12   1570 1
    31     13   1471 1
    32     13   1533 1
    33     13   1618 1
    34     13   1663 1
    35     14   1472 1
    36     14   1534 1
    37     14   1619 1
    38     14   1664 1
    39     15   1473 1
    40     15   1680 1
    41     15   1723 1
    42     15   1843 1
    43     16   1474 1
    44     16   1844 1
    45     17   1527 1
    46     17   1647 1
    47     17   1693 1
    48     17   1893 1
    49     18   1528 1
    50     18   1648 1
    51     18   1694 1
    52     18   1894 1
    53     19   1477 1
    54     19   1849 1
    55     20   1478 1
    56     20   1671 1
    57     20   1719 1
    58     20   1850 1
    59     22   1672 1
    60     22   1720 1
    61     23   1479 1
    62     23   1851 1
    63     24   1480 1
    64     24   1673 1
    65     24   1721 1
    66     24   1852 1
    67     26   1674 1
    68     26   1722 1
    69     27   1587 1
    70     27   1607 1
    71     27   1737 1
    72     27   1825 1
    73     28   1588 1
    74     28   1608 1
    75     28   1738 1
    76     28   1826 1
    77     29   1485 1
    78     29   1519 1
    79     29   1553 1
    80     29   1579 1
    81     30   1486 1
    82     30   1520 1
    83     30   1554 1
    84     30   1580 1
    85     31   1624 1
    86     31   1669 1
    87     32   1611 1
    88     32   1625 1
    89     32   1653 1
    90     32   1670 1
    91     33   1491 1
    92     33   1509 1
    93     33   1559 1
    94     33   1577 1
    95     34   1492 1
    96     34   1510 1
    97     34   1560 1
    98     34   1578 1
    99     35   1511 1
   100     35   1573 1
   101     36   1512 1
   102     36   1574 1
   103     39   1493 1
   104     39   1513 1
   105     39   1555 1
   106     39   1575 1
   107     40   1494 1
   108     40   1514 1
   109     40   1556 1
   110     40   1576 1
   111     41   1495 1
   112     41   1557 1
   113     42   1496 1
   114     42   1558 1
   115     43   1497 1
   116     43   1565 1
   117     43   1593 1
   118     43   1641 1
   119     44   1498 1
   120     44   1566 1
   121     46   1594 1
   122     46   1637 1
   123     48   1595 1
   124     48   1638 1
   125     49   1499 1
   126     49   1561 1
   127     50   1500 1
   128     50   1562 1
   129     50   1596 1
   130     50   1639 1
   131     51   1501 1
   132     51   1563 1
   133     52   1502 1
   134     52   1564 1
   135     52   1597 1
   136     52   1640 1
   137     53   1469 1
   138     53   1535 1
   139     54   1470 1
   140     54   1536 1
   141     54   1620 1
   142     54   1662 1
   143     55   1503 1
   144     55   1571 1
   145     56   1504 1
   146     56   1572 1
   147     56   1602 1
   148     56   1642 1
   149     57   1591 1
   150     57   1603 1
   151     57   1736 1
   152     57   1829 1
   153     58   1592 1
   154     58   1830 1
   155     60   1633 1
   156     60   1761 1
   157     61   1537 1
   158     61   1781 1
   159     62   1538 1
   160     62   1634 1
   161     62   1762 1
   162     62   1782 1
   163     64   1635 1
   164     64   1763 1
   165     65   1539 1
   166     65   1783 1
   167     66   1540 1
   168     66   1636 1
   169     66   1764 1
   170     66   1784 1
   171     67   1585 1
   172     67   1605 1
   173     67   1739 1
   174     67   1827 1
   175     68   1586 1
   176     68   1606 1
   177     68   1740 1
   178     68   1828 1
   179     69   1675 1
   180     69   1715 1
   181     71   1481 1
   182     71   1676 1
   183     71   1716 1
   184     71   1845 1
   185     72   1482 1
   186     72   1846 1
   187     73   1677 1
   188     73   1717 1
   189     75   1483 1
   190     75   1678 1
   191     75   1718 1
   192     75   1847 1
   193     76   1484 1
   194     76   1848 1
   195     77   1609 1
   196     77   1626 1
   197     77   1654 1
   198     77   1668 1
   199     78   1610 1
   200     78   1655 1
   201     81   1515 1
   202     81   1581 1
   203     82   1516 1
   204     82   1582 1
   205     83   1487 1
   206     83   1549 1
   207     84   1488 1
   208     84   1550 1
   209     85   1489 1
   210     85   1517 1
   211     85   1551 1
   212     85   1583 1
   213     86   1490 1
   214     86   1518 1
   215     86   1552 1
   216     86   1584 1
   217     87   1612 1
   218     87   1657 1
   219     88   1613 1
   220     88   1621 1
   221     88   1658 1
   222     88   1667 1
   223     89   1622 1
   224     89   1665 1
   225     90   1614 1
   226     90   1623 1
   227     90   1656 1
   228     90   1666 1
   229     91   1681 1
   230     91   1726 1
   231     91   1801 1
   232     91   1867 1
   233     92   1802 1
   234     92   1868 1
   235     93   1682 1
   236     93   1727 1
   237     93   1803 1
   238     93   1869 1
   239     94   1804 1
   240     94   1870 1
   241     95   1683 1
   242     95   1728 1
   243     97   1684 1
   244     97   1729 1
   245     99   1805 1
   246     99   1865 1
   247    100   1685 1
   248    100   1725 1
   249    100   1806 1
   250    100   1866 1
   251    101   1707 1
   252    101   1750 1
   253    101   1773 1
   254    101   1839 1
   255    102   1708 1
   256    102   1751 1
   257    102   1774 1
   258    102   1840 1
   259    103   1807 1
   260    103   1873 1
   261    104   1687 1
   262    104   1730 1
   263    104   1808 1
   264    104   1874 1
   265    105   1809 1
   266    105   1875 1
   267    106   1688 1
   268    106   1731 1
   269    106   1810 1
   270    106   1876 1
   271    108   1689 1
   272    108   1732 1
   273    110   1690 1
   274    110   1733 1
   275    111   1525 1
   276    111   1649 1
   277    111   1691 1
   278    111   1895 1
   279    112   1526 1
   280    112   1650 1
   281    112   1692 1
   282    112   1896 1
   283    113   1475 1
   284    113   1841 1
   285    114   1476 1
   286    114   1679 1
   287    114   1724 1
   288    114   1842 1
   289    115   1523 1
   290    115   1652 1
   291    115   1695 1
   292    115   1889 1
   293    116   1524 1
   294    116   1890 1
   295    117   1545 1
   296    117   1627 1
   297    117   1760 1
   298    117   1787 1
   299    118   1546 1
   300    118   1788 1
   301    119   1697 1
   302    119   1713 1
   303    119   1743 1
   304    119   1756 1
   305    120   1714 1
   306    120   1757 1
   307    121   1793 1
   308    121   1819 1
   309    121   1853 1
   310    121   1887 1
   311    122   1794 1
   312    122   1820 1
   313    122   1854 1
   314    122   1888 1
   315    123   1700 1
   316    123   1709 1
   317    123   1746 1
   318    123   1754 1
   319    124   1710 1
   320    124   1755 1
   321    125   1701 1
   322    125   1711 1
   323    125   1744 1
   324    125   1753 1
   325    126   1702 1
   326    126   1745 1
   327    127   1703 1
   328    127   1749 1
   329    127   1769 1
   330    127   1835 1
   331    128   1770 1
   332    128   1836 1
   333    129   1704 1
   334    129   1747 1
   335    129   1771 1
   336    129   1833 1
   337    130   1705 1
   338    130   1748 1
   339    130   1772 1
   340    130   1834 1
   341    131   1686 1
   342    131   1734 1
   343    131   1811 1
   344    131   1871 1
   345    132   1812 1
   346    132   1872 1
   347    133   1706 1
   348    133   1752 1
   349    133   1775 1
   350    133   1837 1
   351    134   1776 1
   352    134   1838 1
   353    135   1541 1
   354    135   1629 1
   355    135   1765 1
   356    135   1777 1
   357    136   1542 1
   358    136   1778 1
   359    137   1630 1
   360    137   1766 1
   361    139   1543 1
   362    139   1631 1
   363    139   1767 1
   364    139   1779 1
   365    140   1544 1
   366    140   1780 1
   367    141   1632 1
   368    141   1768 1
   369    143   1589 1
   370    143   1831 1
   371    144   1590 1
   372    144   1604 1
   373    144   1735 1
   374    144   1832 1
   375    145   1547 1
   376    145   1785 1
   377    146   1548 1
   378    146   1628 1
   379    146   1759 1
   380    146   1786 1
   381    147   1521 1
   382    147   1891 1
   383    148   1522 1
   384    148   1651 1
   385    148   1696 1
   386    148   1892 1
   387    149   1789 1
   388    149   1821 1
   389    149   1855 1
   390    149   1883 1
   391    150   1790 1
   392    150   1822 1
   393    150   1856 1
   394    150   1884 1
   395    151   1791 1
   396    151   1857 1
   397    152   1792 1
   398    152   1858 1
   399    153   1823 1
   400    153   1885 1
   401    154   1824 1
   402    154   1886 1
   403    157   1698 1
   404    157   1741 1
   405    158   1699 1
   406    158   1712 1
   407    158   1742 1
   408    158   1758 1
   409    159   1795 1
   410    159   1861 1
   411    160   1796 1
   412    160   1862 1
   413    161   1797 1
   414    161   1813 1
   415    161   1863 1
   416    161   1879 1
   417    162   1798 1
   418    162   1814 1
   419    162   1864 1
   420    162   1880 1
   421    165   1815 1
   422    165   1881 1
   423    166   1816 1
   424    166   1882 1
   425    167   1799 1
   426    167   1817 1
   427    167   1859 1
   428    167   1877 1
   429    168   1800 1
   430    168   1818 1
   431    168   1860 1
   432    168   1878 1
   433    169    667 1
   434    170    668 1
   435    171    669 1
   436    172    670 1
   437    173    673 1
   438    174    674 1
   439    175    675 1
   440    176    676 1
   441    177    677 1
   442    178    678 1
   443    179    679 1
   444    180    680 1
   445    181    683 1
   446    182    684 1
   447    183    685 1
   448    184    686 1
   449    185    687 1
   450    186    688 1
   451    187    691 1
   452    188    692 1
   453    189    693 1
   454    190    694 1
   455    191    695 1
   456    192    696 1
   457    193    713 1
   458    194    714 1
   459    195    717 1
   460    196    718 1
   461    197    719 1
   462    198    720 1
   463    199    721 1
   464    200    722 1
   465    201    723 1
   466    202    724 1
   467    203    727 1
   468    204    728 1
   469    205    730 1
   470    206    732 1
   471    207    733 1
   472    208    735 1
   473    209    738 1
   474    210    740 1
   475    211    741 1
   476    212    743 1
   477    213    875 1
   478    214    876 1
   479    215    878 1
   480    216    880 1
   481    217    881 1
   482    218    883 1
   483    219    887 1
   484    220    888 1
   485    221    889 1
   486    222    892 1
   487    223    893 1
   488    224    894 1
   489    225    905 1
   490    226    907 1
   491    227    909 1
   492    228    910 1
   493    229    912 1
   494    230    914 1
   495    231    915 1
   496    232    916 1
   497    233    917 1
   498    234    918 1
   499    235    919 1
   500    236    920 1
   501    237    921 1
   502    238    922 1
   503    239    923 1
   504    240    924 1
   505    241   1056 1
   506    242   1058 1
   507    243   1059 1
   508    244   1061 1
   509    245   1063 1
   510    246   1064 1
   511    247   1065 1
   512    248   1066 1
   513    249   1067 1
   514    250   1070 1
   515    251   1071 1
   516    252   1072 1
   517    253   1085 1
   518    254   1087 1
   519    255   1089 1
   520    256   1090 1
   521    257   1092 1
   522    258   1094 1
   523    259   1095 1
   524    260   1096 1
   525    261   1097 1
   526    262   1098 1
   527    263   1099 1
   528    264   1100 1
   529    265   1101 1
   530    266   1102 1
   531    267   1103 1
   532    268   1104 1
   533    269   1313 1
   534    270   1314 1
   535    271   1315 1
   536    272   1316 1
   537    273   1317 1
   538    274   1318 1
   539    275   1319 1
   540    276   1320 1
   541    277   1323 1
   542    278   1324 1
   543    279   1325 1
   544    280   1326 1
   545    281   1329 1
   546    282   1330 1
   547    283   1331 1
   548    284   1332 1
   549    285   1333 1
   550    286   1334 1
   551    287   1337 1
   552    288   1338 1
   553    289   1339 1
   554    290   1340 1
   555    291   1341 1
   556    292   1342 1
   557    293   1361 1
   558    294   1362 1
   559    295   1363 1
   560    296   1364 1
   561    297   1367 1
   562    298   1368 1
   563    299   1369 1
   564    300   1370 1
   565    301   1373 1
   566    302   1374 1
   567    303   1375 1
   568    304   1376 1
   569    305   1378 1
   570    306   1380 1
   571    307   1381 1
   572    308   1383 1
   573    309   1386 1
   574    310   1388 1
   575    311   1389 1
   576    312   1391 1
   577    313   1393 1
   578    314   1394 1
   579    315   1393 1
   580    316   1394 1
   581    317   1395 1
   582    318   1396 1
   583    319   1395 1
   584    320   1396 1
   585    321   1397 1
   586    322   1398 1
   587    323   1397 1
   588    324   1398 1
   589    325   1399 1
   590    326   1400 1
   591    327   1399 1
   592    328   1400 1
   593    329   1401 1
   594    330   1402 1
   595    331   1401 1
   596    332   1402 1
   597    333   1403 1
   598    334   1404 1
   599    335   1405 1
   600    336   1406 1
   601    337   1403 1
   602    338   1404 1
   603    339   1405 1
   604    340   1406 1
   605    341   1407 1
   606    342   1408 1
   607    343   1407 1
   608    344   1408 1
   609    345   1409 1
   610    346   1410 1
   611    347   1411 1
   612    348   1412 1
   613    349   1409 1
   614    350   1410 1
   615    351   1411 1
   616    352   1412 1
   617    353   1413 1
   618    354   1413 1
   619    355   1414 1
   620    356   1415 1
   621    357   1416 1
   622    358   1417 1
   623    359   1414 1
   624    360   1415 1
   625    361   1416 1
   626    362   1417 1
   627    363   1418 1
   628    364   1419 1
   629    365   1420 1
   630    366   1421 1
   631    367   1418 1
   632    368   1419 1
   633    369   1420 1
   634    370   1421 1
   635    371   1422 1
   636    372   1422 1
   637    373   1423 1
   638    374   1424 1
   639    375   1423 1
   640    376   1424 1
   641    377   1425 1
   642    378   1425 1
   643    379   1426 1
   644    380   1427 1
   645    381   1426 1
   646    382   1427 1
   647    383   1428 1
   648    384   1428 1
   649    385   1429 1
   650    386   1430 1
   651    387   1431 1
   652    388   1432 1
   653    389   1429 1
   654    390   1430 1
   655    391   1431 1
   656    392   1432 1
   657    393   1433 1
   658    394   1433 1
   659    395   1434 1
   660    396   1434 1
   661    397   1435 1
   662    398   1436 1
   663    399   1437 1
   664    400   1438 1
   665    401   1435 1
   666    402   1436 1
   667    403   1437 1
   668    404   1438 1
   669    405   1439 1
   670    406   1439 1
   671    407   1440 1
   672    408   1441 1
   673    409   1440 1
   674    410   1441 1
   675    411   1442 1
   676    412   1442 1
   677    413   1443 1
   678    414   1444 1
   679    415   1443 1
   680    416   1444 1
   681    417   1445 1
   682    418   1446 1
   683    419   1445 1
   684    420   1446 1
   685    421   1447 1
   686    422   1448 1
   687    423   1447 1
   688    424   1448 1
   689    425   1449 1
   690    426   1450 1
   691    427   1449 1
   692    428   1450 1
   693    429   1451 1
   694    430   1452 1
   695    431   1451 1
   696    432   1452 1
   697    433   1453 1
   698    434   1454 1
   699    435   1455 1
   700    436   1456 1
   701    437   1453 1
   702    438   1454 1
   703    439   1455 1
   704    440   1456 1
   705    441   1457 1
   706    442   1458 1
   707    443   1457 1
   708    444   1458 1
   709    445   1459 1
   710    446   1460 1
   711    447   1461 1
   712    448   1462 1
   713    449   1459 1
   714    450   1460 1
   715    451   1461 1
   716    452   1462 1
   717    453   1463 1
   718    454   1464 1
   719    455   1463 1
   720    456   1464 1
   721    457    553 1
   722    457   1561 1
   723    458    554 1
   724    458   1465 1
   725    458   1562 1
   726    459    555 1
   727    459   1563 1
   728    460    556 1
   729    460   1466 1
   730    460   1564 1
   731    461    557 1
   732    461   1467 1
   733    462    558 1
   734    463    559 1
   735    463   1468 1
   736    463   1565 1
   737    464    560 1
   738    464   1566 1
   739    465    561 1
   740    466    562 1
   741    466   1469 1
   742    467    563 1
   743    467   1571 1
   744    468    564 1
   745    468   1470 1
   746    468   1572 1
   747    469    565 1
   748    469   1471 1
   749    469   1567 1
   750    470    566 1
   751    470   1568 1
   752    471    567 1
   753    471   1472 1
   754    471   1569 1
   755    472    568 1
   756    472   1570 1
   757    473    569 1
   758    473   1589 1
   759    474    570 1
   760    475    571 1
   761    475   1473 1
   762    475   1590 1
   763    476    572 1
   764    476   1474 1
   765    477    573 1
   766    477   1475 1
   767    478    574 1
   768    478   1476 1
   769    478   1591 1
   770    479    575 1
   771    480    576 1
   772    480   1592 1
   773    481    577 1
   774    481   1477 1
   775    482    578 1
   776    482   1478 1
   777    482   1587 1
   778    483    579 1
   779    483   1479 1
   780    484    580 1
   781    484   1480 1
   782    484   1588 1
   783    485    581 1
   784    485   1481 1
   785    485   1585 1
   786    486    582 1
   787    486   1482 1
   788    487    583 1
   789    487   1483 1
   790    487   1586 1
   791    488    584 1
   792    488   1484 1
   793    489    585 1
   794    489   1581 1
   795    490    586 1
   796    490   1582 1
   797    491    587 1
   798    491   1485 1
   799    491   1583 1
   800    492    588 1
   801    492   1486 1
   802    492   1584 1
   803    493    589 1
   804    493   1487 1
   805    494    590 1
   806    494   1488 1
   807    495    591 1
   808    495   1489 1
   809    495   1579 1
   810    496    592 1
   811    496   1490 1
   812    496   1580 1
   813    497    593 1
   814    497   1573 1
   815    498    594 1
   816    498   1574 1
   817    499    595 1
   818    499   1491 1
   819    499   1575 1
   820    500    596 1
   821    500   1492 1
   822    500   1576 1
   823    501    597 1
   824    501   1493 1
   825    501   1577 1
   826    502    598 1
   827    502   1494 1
   828    502   1578 1
   829    503    599 1
   830    503   1495 1
   831    504    600 1
   832    504   1496 1
   833    505    601 1
   834    505   1529 1
   835    506    602 1
   836    507    603 1
   837    507   1497 1
   838    507   1530 1
   839    508    604 1
   840    508   1498 1
   841    509    605 1
   842    509   1499 1
   843    510    606 1
   844    510   1500 1
   845    510   1531 1
   846    511    607 1
   847    511   1501 1
   848    512    608 1
   849    512   1502 1
   850    512   1532 1
   851    513    609 1
   852    514    610 1
   853    514   1535 1
   854    515    611 1
   855    515   1503 1
   856    516    612 1
   857    516   1504 1
   858    516   1536 1
   859    517    613 1
   860    517   1505 1
   861    517   1533 1
   862    518    614 1
   863    518   1506 1
   864    519    615 1
   865    519   1507 1
   866    519   1534 1
   867    520    616 1
   868    520   1508 1
   869    521    617 1
   870    521   1509 1
   871    521   1555 1
   872    522    618 1
   873    522   1510 1
   874    522   1556 1
   875    523    619 1
   876    523   1557 1
   877    524    620 1
   878    524   1558 1
   879    525    621 1
   880    525   1511 1
   881    526    622 1
   882    526   1512 1
   883    527    623 1
   884    527   1513 1
   885    527   1559 1
   886    528    624 1
   887    528   1514 1
   888    528   1560 1
   889    529    625 1
   890    529   1515 1
   891    530    626 1
   892    530   1516 1
   893    531    627 1
   894    531   1517 1
   895    531   1553 1
   896    532    628 1
   897    532   1518 1
   898    532   1554 1
   899    533    629 1
   900    533   1549 1
   901    534    630 1
   902    534   1550 1
   903    535    631 1
   904    535   1519 1
   905    535   1551 1
   906    536    632 1
   907    536   1520 1
   908    536   1552 1
   909    537    633 1
   910    538    634 1
   911    538   1521 1
   912    539    635 1
   913    539   1547 1
   914    540    636 1
   915    540   1522 1
   916    540   1548 1
   917    541    637 1
   918    541   1523 1
   919    541   1545 1
   920    542    638 1
   921    542   1546 1
   922    543    639 1
   923    543   1524 1
   924    544    640 1
   925    545    641 1
   926    545   1537 1
   927    546    642 1
   928    546   1525 1
   929    546   1538 1
   930    547    643 1
   931    547   1539 1
   932    548    644 1
   933    548   1526 1
   934    548   1540 1
   935    549    645 1
   936    549   1527 1
   937    549   1541 1
   938    550    646 1
   939    550   1542 1
   940    551    647 1
   941    551   1528 1
   942    551   1543 1
   943    552    648 1
   944    552   1544 1
   945    553    649 1
   946    553    693 1
   947    554    650 1
   948    554    694 1
   949    555    651 1
   950    555    695 1
   951    556    652 1
   952    556    696 1
   953    557    653 1
   954    557    681 1
   955    558    654 1
   956    558    682 1
   957    559    655 1
   958    559    683 1
   959    560    656 1
   960    560    684 1
   961    561    657 1
   962    561    689 1
   963    562    658 1
   964    562    690 1
   965    563    659 1
   966    563    691 1
   967    564    660 1
   968    564    692 1
   969    565    661 1
   970    565    685 1
   971    566    662 1
   972    566    686 1
   973    567    663 1
   974    567    687 1
   975    568    664 1
   976    568    688 1
   977    569    661 1
   978    569    665 1
   979    570    662 1
   980    570    666 1
   981    571    663 1
   982    571    667 1
   983    572    664 1
   984    572    668 1
   985    573    649 1
   986    573    669 1
   987    574    650 1
   988    574    670 1
   989    575    651 1
   990    575    671 1
   991    576    652 1
   992    576    672 1
   993    577    657 1
   994    577    673 1
   995    578    658 1
   996    578    674 1
   997    579    659 1
   998    579    675 1
   999    580    660 1
  1000    580    676 1
  1001    581    653 1
  1002    581    677 1
  1003    582    654 1
  1004    582    678 1
  1005    583    655 1
  1006    583    679 1
  1007    584    656 1
  1008    584    680 1
  1009    585    677 1
  1010    585    681 1
  1011    586    678 1
  1012    586    682 1
  1013    587    679 1
  1014    587    683 1
  1015    588    680 1
  1016    588    684 1
  1017    589    665 1
  1018    589    685 1
  1019    590    666 1
  1020    590    686 1
  1021    591    667 1
  1022    591    687 1
  1023    592    668 1
  1024    592    688 1
  1025    593    673 1
  1026    593    689 1
  1027    594    674 1
  1028    594    690 1
  1029    595    675 1
  1030    595    691 1
  1031    596    676 1
  1032    596    692 1
  1033    597    669 1
  1034    597    693 1
  1035    598    670 1
  1036    598    694 1
  1037    599    671 1
  1038    599    695 1
  1039    600    672 1
  1040    600    696 1
  1041    601    697 1
  1042    601    741 1
  1043    602    698 1
  1044    602    742 1
  1045    603    699 1
  1046    603    743 1
  1047    604    700 1
  1048    604    744 1
  1049    605    701 1
  1050    605    729 1
  1051    606    702 1
  1052    606    730 1
  1053    607    703 1
  1054    607    731 1
  1055    608    704 1
  1056    608    732 1
  1057    609    705 1
  1058    609    737 1
  1059    610    706 1
  1060    610    738 1
  1061    611    707 1
  1062    611    739 1
  1063    612    708 1
  1064    612    740 1
  1065    613    709 1
  1066    613    733 1
  1067    614    710 1
  1068    614    734 1
  1069    615    711 1
  1070    615    735 1
  1071    616    712 1
  1072    616    736 1
  1073    617    709 1
  1074    617    713 1
  1075    618    710 1
  1076    618    714 1
  1077    619    711 1
  1078    619    715 1
  1079    620    712 1
  1080    620    716 1
  1081    621    697 1
  1082    621    717 1
  1083    622    698 1
  1084    622    718 1
  1085    623    699 1
  1086    623    719 1
  1087    624    700 1
  1088    624    720 1
  1089    625    705 1
  1090    625    721 1
  1091    626    706 1
  1092    626    722 1
  1093    627    707 1
  1094    627    723 1
  1095    628    708 1
  1096    628    724 1
  1097    629    701 1
  1098    629    725 1
  1099    630    702 1
  1100    630    726 1
  1101    631    703 1
  1102    631    727 1
  1103    632    704 1
  1104    632    728 1
  1105    633    725 1
  1106    633    729 1
  1107    634    726 1
  1108    634    730 1
  1109    635    727 1
  1110    635    731 1
  1111    636    728 1
  1112    636    732 1
  1113    637    713 1
  1114    637    733 1
  1115    638    714 1
  1116    638    734 1
  1117    639    715 1
  1118    639    735 1
  1119    640    716 1
  1120    640    736 1
  1121    641    721 1
  1122    641    737 1
  1123    642    722 1
  1124    642    738 1
  1125    643    723 1
  1126    643    739 1
  1127    644    724 1
  1128    644    740 1
  1129    645    717 1
  1130    645    741 1
  1131    646    718 1
  1132    646    742 1
  1133    647    719 1
  1134    647    743 1
  1135    648    720 1
  1136    648    744 1
  1137    650   1393 1
  1138    652   1394 1
  1139    653   1395 1
  1140    655   1396 1
  1141    658   1397 1
  1142    660   1398 1
  1143    661   1399 1
  1144    663   1400 1
  1145    699   1401 1
  1146    700   1402 1
  1147    701   1403 1
  1148    702   1404 1
  1149    703   1405 1
  1150    704   1406 1
  1151    707   1407 1
  1152    708   1408 1
  1153    709   1409 1
  1154    710   1410 1
  1155    711   1411 1
  1156    712   1412 1
  1157    745    805 1
  1158    745   1593 1
  1159    745   1659 1
  1160    746    806 1
  1161    746   1594 1
  1162    747    807 1
  1163    747   1595 1
  1164    748    808 1
  1165    748   1596 1
  1166    748   1660 1
  1167    749    809 1
  1168    749   1597 1
  1169    749   1661 1
  1170    750    810 1
  1171    750   1598 1
  1172    751    811 1
  1173    751   1599 1
  1174    752    812 1
  1175    752   1600 1
  1176    752   1663 1
  1177    753    813 1
  1178    753   1601 1
  1179    753   1664 1
  1180    754    814 1
  1181    754   1602 1
  1182    754   1662 1
  1183    755    815 1
  1184    755   1603 1
  1185    755   1679 1
  1186    756    816 1
  1187    756   1604 1
  1188    756   1680 1
  1189    757    817 1
  1190    757   1675 1
  1191    758    818 1
  1192    758   1605 1
  1193    758   1676 1
  1194    759    819 1
  1195    759   1677 1
  1196    760    820 1
  1197    760   1606 1
  1198    760   1678 1
  1199    761    821 1
  1200    761   1607 1
  1201    761   1671 1
  1202    762    822 1
  1203    762   1672 1
  1204    763    823 1
  1205    763   1608 1
  1206    763   1673 1
  1207    764    824 1
  1208    764   1674 1
  1209    765    825 1
  1210    765   1669 1
  1211    766    826 1
  1212    767    827 1
  1213    767   1609 1
  1214    767   1670 1
  1215    768    828 1
  1216    768   1610 1
  1217    769    829 1
  1218    769   1611 1
  1219    769   1668 1
  1220    770    830 1
  1221    771    831 1
  1222    771   1665 1
  1223    772    832 1
  1224    772   1612 1
  1225    773    833 1
  1226    773   1613 1
  1227    773   1666 1
  1228    774    834 1
  1229    774   1614 1
  1230    774   1667 1
  1231    775    835 1
  1232    775   1637 1
  1233    776    836 1
  1234    776   1638 1
  1235    777    837 1
  1236    777   1615 1
  1237    777   1639 1
  1238    778    838 1
  1239    778   1616 1
  1240    778   1640 1
  1241    779    839 1
  1242    779   1617 1
  1243    779   1641 1
  1244    780    840 1
  1245    780   1643 1
  1246    781    841 1
  1247    781   1644 1
  1248    782    842 1
  1249    782   1618 1
  1250    782   1645 1
  1251    783    843 1
  1252    783   1619 1
  1253    783   1646 1
  1254    784    844 1
  1255    784   1620 1
  1256    784   1642 1
  1257    785    845 1
  1258    785   1621 1
  1259    785   1656 1
  1260    786    846 1
  1261    787    847 1
  1262    787   1622 1
  1263    788    848 1
  1264    788   1657 1
  1265    789    849 1
  1266    789   1623 1
  1267    789   1658 1
  1268    790    850 1
  1269    790   1624 1
  1270    791    851 1
  1271    792    852 1
  1272    792   1625 1
  1273    792   1654 1
  1274    793    853 1
  1275    793   1655 1
  1276    794    854 1
  1277    794   1626 1
  1278    794   1653 1
  1279    795    855 1
  1280    795   1627 1
  1281    795   1652 1
  1282    796    856 1
  1283    796   1628 1
  1284    796   1651 1
  1285    797    857 1
  1286    797   1629 1
  1287    797   1647 1
  1288    798    858 1
  1289    798   1630 1
  1290    799    859 1
  1291    799   1631 1
  1292    799   1648 1
  1293    800    860 1
  1294    800   1632 1
  1295    801    861 1
  1296    801   1633 1
  1297    802    862 1
  1298    802   1634 1
  1299    802   1649 1
  1300    803    863 1
  1301    803   1635 1
  1302    804    864 1
  1303    804   1636 1
  1304    804   1650 1
  1305    805    865 1
  1306    805    894 1
  1307    806    866 1
  1308    806    885 1
  1309    807    867 1
  1310    807    886 1
  1311    808    868 1
  1312    808    887 1
  1313    809    869 1
  1314    809    888 1
  1315    810    870 1
  1316    810    890 1
  1317    811    871 1
  1318    811    891 1
  1319    812    872 1
  1320    812    892 1
  1321    813    873 1
  1322    813    893 1
  1323    814    874 1
  1324    814    889 1
  1325    815    874 1
  1326    815    875 1
  1327    816    865 1
  1328    816    876 1
  1329    817    870 1
  1330    817    877 1
  1331    818    871 1
  1332    818    878 1
  1333    819    872 1
  1334    819    879 1
  1335    820    873 1
  1336    820    880 1
  1337    821    866 1
  1338    821    881 1
  1339    822    867 1
  1340    822    882 1
  1341    823    868 1
  1342    823    883 1
  1343    824    869 1
  1344    824    884 1
  1345    825    881 1
  1346    825    885 1
  1347    826    882 1
  1348    826    886 1
  1349    827    883 1
  1350    827    887 1
  1351    828    884 1
  1352    828    888 1
  1353    829    875 1
  1354    829    889 1
  1355    830    877 1
  1356    830    890 1
  1357    831    878 1
  1358    831    891 1
  1359    832    879 1
  1360    832    892 1
  1361    833    880 1
  1362    833    893 1
  1363    834    876 1
  1364    834    894 1
  1365    835    895 1
  1366    835    921 1
  1367    836    896 1
  1368    836    922 1
  1369    837    897 1
  1370    837    923 1
  1371    838    898 1
  1372    838    924 1
  1373    839    899 1
  1374    839    915 1
  1375    840    900 1
  1376    840    917 1
  1377    841    901 1
  1378    841    918 1
  1379    842    902 1
  1380    842    919 1
  1381    843    903 1
  1382    843    920 1
  1383    844    904 1
  1384    844    916 1
  1385    845    904 1
  1386    845    905 1
  1387    846    895 1
  1388    846    906 1
  1389    847    896 1
  1390    847    907 1
  1391    848    897 1
  1392    848    908 1
  1393    849    898 1
  1394    849    909 1
  1395    850    900 1
  1396    850    910 1
  1397    851    901 1
  1398    851    911 1
  1399    852    902 1
  1400    852    912 1
  1401    853    903 1
  1402    853    913 1
  1403    854    899 1
  1404    854    914 1
  1405    855    914 1
  1406    855    915 1
  1407    856    905 1
  1408    856    916 1
  1409    857    910 1
  1410    857    917 1
  1411    858    911 1
  1412    858    918 1
  1413    859    912 1
  1414    859    919 1
  1415    860    913 1
  1416    860    920 1
  1417    861    906 1
  1418    861    921 1
  1419    862    907 1
  1420    862    922 1
  1421    863    908 1
  1422    863    923 1
  1423    864    909 1
  1424    864    924 1
  1425    865   1413 1
  1426    866   1414 1
  1427    867   1415 1
  1428    868   1416 1
  1429    869   1417 1
  1430    870   1418 1
  1431    871   1419 1
  1432    872   1420 1
  1433    873   1421 1
  1434    874   1422 1
  1435    897   1423 1
  1436    898   1424 1
  1437    899   1425 1
  1438    902   1426 1
  1439    903   1427 1
  1440    904   1428 1
  1441    925    985 1
  1442    925   1681 1
  1443    925   1747 1
  1444    926    986 1
  1445    926   1682 1
  1446    926   1748 1
  1447    927    987 1
  1448    927   1683 1
  1449    928    988 1
  1450    928   1684 1
  1451    929    989 1
  1452    929   1685 1
  1453    929   1749 1
  1454    930    990 1
  1455    930   1686 1
  1456    930   1752 1
  1457    931    991 1
  1458    931   1687 1
  1459    931   1750 1
  1460    932    992 1
  1461    932   1688 1
  1462    932   1751 1
  1463    933    993 1
  1464    933   1689 1
  1465    934    994 1
  1466    934   1690 1
  1467    935    995 1
  1468    935   1761 1
  1469    936    996 1
  1470    936   1691 1
  1471    936   1762 1
  1472    937    997 1
  1473    937   1763 1
  1474    938    998 1
  1475    938   1692 1
  1476    938   1764 1
  1477    939    999 1
  1478    939   1693 1
  1479    939   1765 1
  1480    940   1000 1
  1481    940   1766 1
  1482    941   1001 1
  1483    941   1694 1
  1484    941   1767 1
  1485    942   1002 1
  1486    942   1768 1
  1487    943   1003 1
  1488    943   1695 1
  1489    943   1760 1
  1490    944   1004 1
  1491    944   1696 1
  1492    944   1759 1
  1493    945   1005 1
  1494    945   1697 1
  1495    945   1758 1
  1496    946   1006 1
  1497    946   1698 1
  1498    947   1007 1
  1499    947   1699 1
  1500    947   1756 1
  1501    948   1008 1
  1502    949   1009 1
  1503    949   1757 1
  1504    950   1010 1
  1505    950   1700 1
  1506    950   1753 1
  1507    951   1011 1
  1508    951   1701 1
  1509    951   1754 1
  1510    952   1012 1
  1511    952   1702 1
  1512    953   1013 1
  1513    953   1755 1
  1514    954   1014 1
  1515    955   1015 1
  1516    955   1703 1
  1517    955   1725 1
  1518    956   1016 1
  1519    956   1704 1
  1520    956   1726 1
  1521    957   1017 1
  1522    957   1705 1
  1523    957   1727 1
  1524    958   1018 1
  1525    958   1728 1
  1526    959   1019 1
  1527    959   1729 1
  1528    960   1020 1
  1529    960   1706 1
  1530    960   1734 1
  1531    961   1021 1
  1532    961   1707 1
  1533    961   1730 1
  1534    962   1022 1
  1535    962   1708 1
  1536    962   1731 1
  1537    963   1023 1
  1538    963   1732 1
  1539    964   1024 1
  1540    964   1733 1
  1541    965   1025 1
  1542    965   1709 1
  1543    965   1744 1
  1544    966   1026 1
  1545    966   1745 1
  1546    967   1027 1
  1547    967   1710 1
  1548    968   1028 1
  1549    969   1029 1
  1550    969   1711 1
  1551    969   1746 1
  1552    970   1030 1
  1553    970   1712 1
  1554    970   1743 1
  1555    971   1031 1
  1556    971   1741 1
  1557    972   1032 1
  1558    972   1713 1
  1559    972   1742 1
  1560    973   1033 1
  1561    974   1034 1
  1562    974   1714 1
  1563    975   1035 1
  1564    975   1715 1
  1565    976   1036 1
  1566    976   1716 1
  1567    976   1739 1
  1568    977   1037 1
  1569    977   1717 1
  1570    978   1038 1
  1571    978   1718 1
  1572    978   1740 1
  1573    979   1039 1
  1574    979   1719 1
  1575    979   1737 1
  1576    980   1040 1
  1577    980   1720 1
  1578    981   1041 1
  1579    981   1721 1
  1580    981   1738 1
  1581    982   1042 1
  1582    982   1722 1
  1583    983   1043 1
  1584    983   1723 1
  1585    983   1735 1
  1586    984   1044 1
  1587    984   1724 1
  1588    984   1736 1
  1589    985   1045 1
  1590    985   1071 1
  1591    986   1046 1
  1592    986   1072 1
  1593    987   1047 1
  1594    987   1073 1
  1595    988   1048 1
  1596    988   1074 1
  1597    989   1049 1
  1598    989   1065 1
  1599    990   1050 1
  1600    990   1070 1
  1601    991   1051 1
  1602    991   1066 1
  1603    992   1052 1
  1604    992   1067 1
  1605    993   1053 1
  1606    993   1068 1
  1607    994   1054 1
  1608    994   1069 1
  1609    995   1051 1
  1610    995   1055 1
  1611    996   1052 1
  1612    996   1056 1
  1613    997   1053 1
  1614    997   1057 1
  1615    998   1054 1
  1616    998   1058 1
  1617    999   1045 1
  1618    999   1059 1
  1619   1000   1046 1
  1620   1000   1060 1
  1621   1001   1047 1
  1622   1001   1061 1
  1623   1002   1048 1
  1624   1002   1062 1
  1625   1003   1050 1
  1626   1003   1063 1
  1627   1004   1049 1
  1628   1004   1064 1
  1629   1005   1064 1
  1630   1005   1065 1
  1631   1006   1055 1
  1632   1006   1066 1
  1633   1007   1056 1
  1634   1007   1067 1
  1635   1008   1057 1
  1636   1008   1068 1
  1637   1009   1058 1
  1638   1009   1069 1
  1639   1010   1063 1
  1640   1010   1070 1
  1641   1011   1059 1
  1642   1011   1071 1
  1643   1012   1060 1
  1644   1012   1072 1
  1645   1013   1061 1
  1646   1013   1073 1
  1647   1014   1062 1
  1648   1014   1074 1
  1649   1015   1075 1
  1650   1015   1104 1
  1651   1016   1076 1
  1652   1016   1095 1
  1653   1017   1077 1
  1654   1017   1096 1
  1655   1018   1078 1
  1656   1018   1097 1
  1657   1019   1079 1
  1658   1019   1098 1
  1659   1020   1080 1
  1660   1020   1103 1
  1661   1021   1081 1
  1662   1021   1099 1
  1663   1022   1082 1
  1664   1022   1100 1
  1665   1023   1083 1
  1666   1023   1101 1
  1667   1024   1084 1
  1668   1024   1102 1
  1669   1025   1081 1
  1670   1025   1085 1
  1671   1026   1082 1
  1672   1026   1086 1
  1673   1027   1083 1
  1674   1027   1087 1
  1675   1028   1084 1
  1676   1028   1088 1
  1677   1029   1075 1
  1678   1029   1089 1
  1679   1030   1080 1
  1680   1030   1090 1
  1681   1031   1076 1
  1682   1031   1091 1
  1683   1032   1077 1
  1684   1032   1092 1
  1685   1033   1078 1
  1686   1033   1093 1
  1687   1034   1079 1
  1688   1034   1094 1
  1689   1035   1091 1
  1690   1035   1095 1
  1691   1036   1092 1
  1692   1036   1096 1
  1693   1037   1093 1
  1694   1037   1097 1
  1695   1038   1094 1
  1696   1038   1098 1
  1697   1039   1085 1
  1698   1039   1099 1
  1699   1040   1086 1
  1700   1040   1100 1
  1701   1041   1087 1
  1702   1041   1101 1
  1703   1042   1088 1
  1704   1042   1102 1
  1705   1043   1090 1
  1706   1043   1103 1
  1707   1044   1089 1
  1708   1044   1104 1
  1709   1045   1429 1
  1710   1046   1430 1
  1711   1047   1431 1
  1712   1048   1432 1
  1713   1049   1433 1
  1714   1050   1434 1
  1715   1051   1435 1
  1716   1052   1436 1
  1717   1053   1437 1
  1718   1054   1438 1
  1719   1075   1439 1
  1720   1076   1440 1
  1721   1077   1441 1
  1722   1080   1442 1
  1723   1081   1443 1
  1724   1082   1444 1
  1725   1105   1201 1
  1726   1105   1865 1
  1727   1106   1202 1
  1728   1106   1769 1
  1729   1106   1866 1
  1730   1107   1203 1
  1731   1108   1204 1
  1732   1108   1770 1
  1733   1109   1205 1
  1734   1109   1771 1
  1735   1109   1867 1
  1736   1110   1206 1
  1737   1110   1868 1
  1738   1111   1207 1
  1739   1111   1772 1
  1740   1111   1869 1
  1741   1112   1208 1
  1742   1112   1870 1
  1743   1113   1209 1
  1744   1113   1873 1
  1745   1114   1210 1
  1746   1114   1773 1
  1747   1114   1874 1
  1748   1115   1211 1
  1749   1115   1875 1
  1750   1116   1212 1
  1751   1116   1774 1
  1752   1116   1876 1
  1753   1117   1213 1
  1754   1117   1775 1
  1755   1117   1871 1
  1756   1118   1214 1
  1757   1118   1872 1
  1758   1119   1215 1
  1759   1119   1776 1
  1760   1120   1216 1
  1761   1121   1217 1
  1762   1121   1777 1
  1763   1121   1893 1
  1764   1122   1218 1
  1765   1122   1778 1
  1766   1123   1219 1
  1767   1123   1779 1
  1768   1123   1894 1
  1769   1124   1220 1
  1770   1124   1780 1
  1771   1125   1221 1
  1772   1125   1781 1
  1773   1126   1222 1
  1774   1126   1782 1
  1775   1126   1895 1
  1776   1127   1223 1
  1777   1127   1783 1
  1778   1128   1224 1
  1779   1128   1784 1
  1780   1128   1896 1
  1781   1129   1225 1
  1782   1130   1226 1
  1783   1130   1891 1
  1784   1131   1227 1
  1785   1131   1785 1
  1786   1132   1228 1
  1787   1132   1786 1
  1788   1132   1892 1
  1789   1133   1229 1
  1790   1133   1787 1
  1791   1133   1889 1
  1792   1134   1230 1
  1793   1134   1788 1
  1794   1135   1231 1
  1795   1135   1890 1
  1796   1136   1232 1
  1797   1137   1233 1
  1798   1137   1789 1
  1799   1137   1887 1
  1800   1138   1234 1
  1801   1138   1790 1
  1802   1138   1888 1
  1803   1139   1235 1
  1804   1139   1791 1
  1805   1140   1236 1
  1806   1140   1792 1
  1807   1141   1237 1
  1808   1141   1793 1
  1809   1141   1883 1
  1810   1142   1238 1
  1811   1142   1794 1
  1812   1142   1884 1
  1813   1143   1239 1
  1814   1143   1885 1
  1815   1144   1240 1
  1816   1144   1886 1
  1817   1145   1241 1
  1818   1145   1795 1
  1819   1146   1242 1
  1820   1146   1796 1
  1821   1147   1243 1
  1822   1147   1797 1
  1823   1147   1877 1
  1824   1148   1244 1
  1825   1148   1798 1
  1826   1148   1878 1
  1827   1149   1245 1
  1828   1149   1799 1
  1829   1149   1879 1
  1830   1150   1246 1
  1831   1150   1800 1
  1832   1150   1880 1
  1833   1151   1247 1
  1834   1151   1881 1
  1835   1152   1248 1
  1836   1152   1882 1
  1837   1153   1249 1
  1838   1153   1801 1
  1839   1153   1833 1
  1840   1154   1250 1
  1841   1154   1802 1
  1842   1155   1251 1
  1843   1155   1803 1
  1844   1155   1834 1
  1845   1156   1252 1
  1846   1156   1804 1
  1847   1157   1253 1
  1848   1157   1805 1
  1849   1158   1254 1
  1850   1158   1806 1
  1851   1158   1835 1
  1852   1159   1255 1
  1853   1160   1256 1
  1854   1160   1836 1
  1855   1161   1257 1
  1856   1161   1807 1
  1857   1162   1258 1
  1858   1162   1808 1
  1859   1162   1839 1
  1860   1163   1259 1
  1861   1163   1809 1
  1862   1164   1260 1
  1863   1164   1810 1
  1864   1164   1840 1
  1865   1165   1261 1
  1866   1165   1811 1
  1867   1165   1837 1
  1868   1166   1262 1
  1869   1166   1812 1
  1870   1167   1263 1
  1871   1167   1838 1
  1872   1168   1264 1
  1873   1169   1265 1
  1874   1169   1813 1
  1875   1169   1859 1
  1876   1170   1266 1
  1877   1170   1814 1
  1878   1170   1860 1
  1879   1171   1267 1
  1880   1171   1815 1
  1881   1172   1268 1
  1882   1172   1816 1
  1883   1173   1269 1
  1884   1173   1861 1
  1885   1174   1270 1
  1886   1174   1862 1
  1887   1175   1271 1
  1888   1175   1817 1
  1889   1175   1863 1
  1890   1176   1272 1
  1891   1176   1818 1
  1892   1176   1864 1
  1893   1177   1273 1
  1894   1177   1819 1
  1895   1177   1855 1
  1896   1178   1274 1
  1897   1178   1820 1
  1898   1178   1856 1
  1899   1179   1275 1
  1900   1179   1857 1
  1901   1180   1276 1
  1902   1180   1858 1
  1903   1181   1277 1
  1904   1181   1821 1
  1905   1181   1853 1
  1906   1182   1278 1
  1907   1182   1822 1
  1908   1182   1854 1
  1909   1183   1279 1
  1910   1183   1823 1
  1911   1184   1280 1
  1912   1184   1824 1
  1913   1185   1281 1
  1914   1185   1849 1
  1915   1186   1282 1
  1916   1186   1825 1
  1917   1186   1850 1
  1918   1187   1283 1
  1919   1187   1851 1
  1920   1188   1284 1
  1921   1188   1826 1
  1922   1188   1852 1
  1923   1189   1285 1
  1924   1189   1827 1
  1925   1189   1845 1
  1926   1190   1286 1
  1927   1190   1846 1
  1928   1191   1287 1
  1929   1191   1828 1
  1930   1191   1847 1
  1931   1192   1288 1
  1932   1192   1848 1
  1933   1193   1289 1
  1934   1193   1841 1
  1935   1194   1290 1
  1936   1194   1829 1
  1937   1194   1842 1
  1938   1195   1291 1
  1939   1196   1292 1
  1940   1196   1830 1
  1941   1197   1293 1
  1942   1197   1831 1
  1943   1198   1294 1
  1944   1199   1295 1
  1945   1199   1832 1
  1946   1199   1843 1
  1947   1200   1296 1
  1948   1200   1844 1
  1949   1201   1297 1
  1950   1201   1341 1
  1951   1202   1298 1
  1952   1202   1342 1
  1953   1203   1299 1
  1954   1203   1343 1
  1955   1204   1300 1
  1956   1204   1344 1
  1957   1205   1301 1
  1958   1205   1329 1
  1959   1206   1302 1
  1960   1206   1330 1
  1961   1207   1303 1
  1962   1207   1331 1
  1963   1208   1304 1
  1964   1208   1332 1
  1965   1209   1305 1
  1966   1209   1337 1
  1967   1210   1306 1
  1968   1210   1338 1
  1969   1211   1307 1
  1970   1211   1339 1
  1971   1212   1308 1
  1972   1212   1340 1
  1973   1213   1309 1
  1974   1213   1333 1
  1975   1214   1310 1
  1976   1214   1334 1
  1977   1215   1311 1
  1978   1215   1335 1
  1979   1216   1312 1
  1980   1216   1336 1
  1981   1217   1309 1
  1982   1217   1313 1
  1983   1218   1310 1
  1984   1218   1314 1
  1985   1219   1311 1
  1986   1219   1315 1
  1987   1220   1312 1
  1988   1220   1316 1
  1989   1221   1297 1
  1990   1221   1317 1
  1991   1222   1298 1
  1992   1222   1318 1
  1993   1223   1299 1
  1994   1223   1319 1
  1995   1224   1300 1
  1996   1224   1320 1
  1997   1225   1305 1
  1998   1225   1321 1
  1999   1226   1306 1
  2000   1226   1322 1
  2001   1227   1307 1
  2002   1227   1323 1
  2003   1228   1308 1
  2004   1228   1324 1
  2005   1229   1301 1
  2006   1229   1325 1
  2007   1230   1302 1
  2008   1230   1326 1
  2009   1231   1303 1
  2010   1231   1327 1
  2011   1232   1304 1
  2012   1232   1328 1
  2013   1233   1325 1
  2014   1233   1329 1
  2015   1234   1326 1
  2016   1234   1330 1
  2017   1235   1327 1
  2018   1235   1331 1
  2019   1236   1328 1
  2020   1236   1332 1
  2021   1237   1313 1
  2022   1237   1333 1
  2023   1238   1314 1
  2024   1238   1334 1
  2025   1239   1315 1
  2026   1239   1335 1
  2027   1240   1316 1
  2028   1240   1336 1
  2029   1241   1321 1
  2030   1241   1337 1
  2031   1242   1322 1
  2032   1242   1338 1
  2033   1243   1323 1
  2034   1243   1339 1
  2035   1244   1324 1
  2036   1244   1340 1
  2037   1245   1317 1
  2038   1245   1341 1
  2039   1246   1318 1
  2040   1246   1342 1
  2041   1247   1319 1
  2042   1247   1343 1
  2043   1248   1320 1
  2044   1248   1344 1
  2045   1249   1345 1
  2046   1249   1389 1
  2047   1250   1346 1
  2048   1250   1390 1
  2049   1251   1347 1
  2050   1251   1391 1
  2051   1252   1348 1
  2052   1252   1392 1
  2053   1253   1349 1
  2054   1253   1377 1
  2055   1254   1350 1
  2056   1254   1378 1
  2057   1255   1351 1
  2058   1255   1379 1
  2059   1256   1352 1
  2060   1256   1380 1
  2061   1257   1353 1
  2062   1257   1385 1
  2063   1258   1354 1
  2064   1258   1386 1
  2065   1259   1355 1
  2066   1259   1387 1
  2067   1260   1356 1
  2068   1260   1388 1
  2069   1261   1357 1
  2070   1261   1381 1
  2071   1262   1358 1
  2072   1262   1382 1
  2073   1263   1359 1
  2074   1263   1383 1
  2075   1264   1360 1
  2076   1264   1384 1
  2077   1265   1357 1
  2078   1265   1361 1
  2079   1266   1358 1
  2080   1266   1362 1
  2081   1267   1359 1
  2082   1267   1363 1
  2083   1268   1360 1
  2084   1268   1364 1
  2085   1269   1345 1
  2086   1269   1365 1
  2087   1270   1346 1
  2088   1270   1366 1
  2089   1271   1347 1
  2090   1271   1367 1
  2091   1272   1348 1
  2092   1272   1368 1
  2093   1273   1353 1
  2094   1273   1369 1
  2095   1274   1354 1
  2096   1274   1370 1
  2097   1275   1355 1
  2098   1275   1371 1
  2099   1276   1356 1
  2100   1276   1372 1
  2101   1277   1349 1
  2102   1277   1373 1
  2103   1278   1350 1
  2104   1278   1374 1
  2105   1279   1351 1
  2106   1279   1375 1
  2107   1280   1352 1
  2108   1280   1376 1
  2109   1281   1373 1
  2110   1281   1377 1
  2111   1282   1374 1
  2112   1282   1378 1
  2113   1283   1375 1
  2114   1283   1379 1
  2115   1284   1376 1
  2116   1284   1380 1
  2117   1285   1361 1
  2118   1285   1381 1
  2119   1286   1362 1
  2120   1286   1382 1
  2121   1287   1363 1
  2122   1287   1383 1
  2123   1288   1364 1
  2124   1288   1384 1
  2125   1289   1369 1
  2126   1289   1385 1
  2127   1290   1370 1
  2128   1290   1386 1
  2129   1291   1371 1
  2130   1291   1387 1
  2131   1292   1372 1
  2132   1292   1388 1
  2133   1293   1365 1
  2134   1293   1389 1
  2135   1294   1366 1
  2136   1294   1390 1
  2137   1295   1367 1
  2138   1295   1391 1
  2139   1296   1368 1
  2140   1296   1392 1
  2141   1298   1445 1
  2142   1300   1446 1
  2143   1301   1447 1
  2144   1303   1448 1
  2145   1306   1449 1
  2146   1308   1450 1
  2147   1309   1451 1
  2148   1311   1452 1
  2149   1345   1453 1
  2150   1346   1454 1
  2151   1347   1455 1
  2152   1348   1456 1
  2153   1349   1457 1
  2154   1350   1458 1
  2155   1353   1459 1
  2156   1354   1460 1
  2157   1355   1461 1
  2158   1356   1462 1
  2159   1357   1463 1
  2160   1358   1464 1
