@<TRIPOS>MOLECULE
zn_nh2_3_tatb_tbo
1356 1536 0 0 0
SMALL
NO_CHARGES

@<TRIPOS>ATOM
     1 Zn1         3.684909    13.531429     8.752331 Zn   1 RES 0.0000
     2 Zn2         3.684909    13.531429    41.728931 Zn   1 RES 0.0000
     3 Zn3        32.243482    13.531429    25.240631 Zn   1 RES 0.0000
     4 Zn4        32.243482    13.531429    58.217231 Zn   1 RES 0.0000
     5 Zn5        13.835323    -0.967456    24.198859 Zn   1 RES 0.0000
     6 Zn6        23.354847    25.957825    40.687159 Zn   1 RES 0.0000
     7 Zn7         5.834611    13.393852     7.735971 Zn   1 RES 0.0000
     8 Zn8         5.834611    13.393852    40.712571 Zn   1 RES 0.0000
     9 Zn9        34.393184    13.393852    24.224271 Zn   1 RES 0.0000
    10 Zn10       34.393184    13.393852    57.200871 Zn   1 RES 0.0000
    11 Zn11       14.723248     0.967455    25.266041 Zn   1 RES 0.0000
    12 Zn12       24.242773    27.892736    41.754341 Zn   1 RES 0.0000
    13 Zn13       -0.586813     1.036310    16.488327 Zn   1 RES 0.0000
    14 Zn14        8.932711    27.961591    32.976627 Zn   1 RES 0.0000
    15 Zn15       27.971760     1.036310    32.976627 Zn   1 RES 0.0000
    16 Zn16       37.491285    27.961591    49.464927 Zn   1 RES 0.0000
    17 Zn17       18.971095    13.558727    17.673180 Zn   1 RES 0.0000
    18 Zn18       18.971095    13.558727    50.649780 Zn   1 RES 0.0000
    19 Zn19        0.586810    -1.036308    16.488273 Zn   1 RES 0.0000
    20 Zn20       10.106334    25.888973    32.976573 Zn   1 RES 0.0000
    21 Zn21       29.145383    -1.036308    32.976573 Zn   1 RES 0.0000
    22 Zn22       38.664907    25.888973    49.464873 Zn   1 RES 0.0000
    23 Zn23       19.107001    13.366554    15.303420 Zn   1 RES 0.0000
    24 Zn24       19.107001    13.366554    48.280020 Zn   1 RES 0.0000
    25 Zn25        3.767593    13.558736    24.081171 Zn   1 RES 0.0000
    26 Zn26       32.326167    13.558736    40.569471 Zn   1 RES 0.0000
    27 Zn27       14.669981     0.898687     7.567392 Zn   1 RES 0.0000
    28 Zn28       14.669981     0.898687    40.543992 Zn   1 RES 0.0000
    29 Zn29       24.189505    27.823968    24.055692 Zn   1 RES 0.0000
    30 Zn30       24.189505    27.823968    57.032292 Zn   1 RES 0.0000
    31 Zn31        5.751926    13.366544    25.383728 Zn   1 RES 0.0000
    32 Zn32       34.310499    13.366544    41.872028 Zn   1 RES 0.0000
    33 Zn33       13.888590    -0.898688     8.920909 Zn   1 RES 0.0000
    34 Zn34       13.888590    -0.898688    41.897509 Zn   1 RES 0.0000
    35 Zn35       23.408115    26.026593    25.409209 Zn   1 RES 0.0000
    36 Zn36       23.408115    26.026593    58.385809 Zn   1 RES 0.0000
    37 H37        8.623904    14.047580    10.750350 H    1 RES 0.0000
    38 H38        8.623904    14.047580    43.726950 H    1 RES 0.0000
    39 H39       37.182477    14.047580    27.238650 H    1 RES 0.0000
    40 H40       37.182477    14.047580    60.215250 H    1 RES 0.0000
    41 H41        9.903061    14.237520    12.881754 H    1 RES 0.0000
    42 H42        9.903061    14.237520    45.858354 H    1 RES 0.0000
    43 H43       38.461634    14.237520    29.370054 H    1 RES 0.0000
    44 H44       38.461634    14.237520    62.346654 H    1 RES 0.0000
    45 H45       16.120381     3.447445    22.226404 H    1 RES 0.0000
    46 H46       25.639905    30.372726    38.714704 H    1 RES 0.0000
    47 H47       16.724430     4.591286    20.094623 H    1 RES 0.0000
    48 H48       26.243955    31.516567    36.582923 H    1 RES 0.0000
    49 H49        3.658970     6.959458    10.598279 H    1 RES 0.0000
    50 H50        3.658970     6.959458    43.574879 H    1 RES 0.0000
    51 H51       32.217544     6.959458    27.086579 H    1 RES 0.0000
    52 H52       32.217544     6.959458    60.063179 H    1 RES 0.0000
    53 H53        9.979936     0.029018    22.980615 H    1 RES 0.0000
    54 H54       19.499460    26.954299    39.468915 H    1 RES 0.0000
    55 H55        7.807203     1.103601    22.395423 H    1 RES 0.0000
    56 H56       17.326727    28.028883    38.883723 H    1 RES 0.0000
    57 H57        5.287831     1.129891    12.037767 H    1 RES 0.0000
    58 H58       14.807355    28.055172    28.526067 H    1 RES 0.0000
    59 H59       33.846404     1.129891    28.526067 H    1 RES 0.0000
    60 H60       43.365928    28.055172    45.014367 H    1 RES 0.0000
    61 H61       18.224795     9.399501    14.394960 H    1 RES 0.0000
    62 H62       18.224795     9.399501    47.371560 H    1 RES 0.0000
    63 H63       17.573562     6.992834    14.352544 H    1 RES 0.0000
    64 H64       17.573562     6.992834    47.329144 H    1 RES 0.0000
    65 H65        1.250666     3.448168    19.334483 H    1 RES 0.0000
    66 H66       10.770190    30.373449    35.822783 H    1 RES 0.0000
    67 H67       29.809239     3.448168    35.822783 H    1 RES 0.0000
    68 H68       39.328764    30.373449    52.311083 H    1 RES 0.0000
    69 H69        2.793784     4.590855    20.924531 H    1 RES 0.0000
    70 H70       12.313309    31.516136    37.412831 H    1 RES 0.0000
    71 H71       31.352358     4.590855    37.412831 H    1 RES 0.0000
    72 H72       40.871882    31.516136    53.901131 H    1 RES 0.0000
    73 H73       14.936759    14.049292    18.581582 H    1 RES 0.0000
    74 H74       14.936759    14.049292    51.558182 H    1 RES 0.0000
    75 H75       12.450696    14.237515    18.624008 H    1 RES 0.0000
    76 H76       12.450696    14.237515    51.600608 H    1 RES 0.0000
    77 H77        6.979762     9.399414    25.073861 H    1 RES 0.0000
    78 H78       35.538335     9.399414    41.562161 H    1 RES 0.0000
    79 H79        7.342119     6.992790    24.531093 H    1 RES 0.0000
    80 H80       35.900692     6.992790    41.019393 H    1 RES 0.0000
    81 H81       14.910227     0.029750    12.843695 H    1 RES 0.0000
    82 H82       14.910227     0.029750    45.820295 H    1 RES 0.0000
    83 H83       24.429751    26.955031    29.331995 H    1 RES 0.0000
    84 H84       24.429751    26.955031    62.308595 H    1 RES 0.0000
    85 H85       15.491395     1.103720    15.017179 H    1 RES 0.0000
    86 H86       15.491395     1.103720    47.993779 H    1 RES 0.0000
    87 H87       25.010919    28.029001    31.505479 H    1 RES 0.0000
    88 H88       25.010919    28.029001    64.482079 H    1 RES 0.0000
    89 H89        4.997968    14.049334    20.133186 H    1 RES 0.0000
    90 H90       33.556541    14.049334    36.621486 H    1 RES 0.0000
    91 H91        6.204287    14.237568    17.958948 H    1 RES 0.0000
    92 H92       34.762860    14.237568    34.447248 H    1 RES 0.0000
    93 H93        9.011071     4.608784     8.467901 H    1 RES 0.0000
    94 H94        9.011071     4.608784    41.444501 H    1 RES 0.0000
    95 H95       18.530596    31.534065    24.956201 H    1 RES 0.0000
    96 H96       18.530596    31.534065    57.932801 H    1 RES 0.0000
    97 H97       11.838749    -4.608635     3.569901 H    1 RES 0.0000
    98 H98       11.838749    -4.608635    36.546501 H    1 RES 0.0000
    99 H99       21.358274    22.316647    20.058201 H    1 RES 0.0000
   100 H100      21.358274    22.316647    53.034801 H    1 RES 0.0000
   101 H101      -0.398930    12.698227    29.407456 H    1 RES 0.0000
   102 H102      28.159643    12.698227    45.895756 H    1 RES 0.0000
   103 H103      18.578129    -0.029793     6.490836 H    1 RES 0.0000
   104 H104      18.578129    -0.029793    39.467436 H    1 RES 0.0000
   105 H105      28.097653    26.895488    22.979136 H    1 RES 0.0000
   106 H106      28.097653    26.895488    55.955736 H    1 RES 0.0000
   107 H107      20.751000    -1.103762     5.907459 H    1 RES 0.0000
   108 H108      20.751000    -1.103762    38.884059 H    1 RES 0.0000
   109 H109      30.270525    25.821519    22.395759 H    1 RES 0.0000
   110 H110      30.270525    25.821519    55.372359 H    1 RES 0.0000
   111 H111       5.860066    19.966359    27.086916 H    1 RES 0.0000
   112 H112      34.418639    19.966359    43.575216 H    1 RES 0.0000
   113 H113      -1.250701    -3.448138    19.334549 H    1 RES 0.0000
   114 H114       8.268824    23.477143    35.822849 H    1 RES 0.0000
   115 H115      27.307873    -3.448138    35.822849 H    1 RES 0.0000
   116 H116      36.827397    23.477143    52.311149 H    1 RES 0.0000
   117 H117      -2.793800    -4.590775    20.924623 H    1 RES 0.0000
   118 H118       6.725724    22.334506    37.412923 H    1 RES 0.0000
   119 H119      25.764773    -4.590775    37.412923 H    1 RES 0.0000
   120 H120      35.284297    22.334506    53.901223 H    1 RES 0.0000
   121 H121      25.667106    12.698460    18.618424 H    1 RES 0.0000
   122 H122      25.667106    12.698460    51.595024 H    1 RES 0.0000
   123 H123      -5.287645    -1.129816    12.037608 H    1 RES 0.0000
   124 H124       4.231879    25.795465    28.525908 H    1 RES 0.0000
   125 H125      23.270928    -1.129816    28.525908 H    1 RES 0.0000
   126 H126      32.790452    25.795465    45.014208 H    1 RES 0.0000
   127 H127      20.527693    19.966403    14.358244 H    1 RES 0.0000
   128 H128      20.527693    19.966403    47.334844 H    1 RES 0.0000
   129 H129      19.548091    -4.608858    24.956626 H    1 RES 0.0000
   130 H130      29.067615    22.316423    41.444926 H    1 RES 0.0000
   131 H131       3.291032    12.697891     1.439569 H    1 RES 0.0000
   132 H132       3.291032    12.697891    34.416169 H    1 RES 0.0000
   133 H133      31.849605    12.697891    17.927869 H    1 RES 0.0000
   134 H134      31.849605    12.697891    50.904469 H    1 RES 0.0000
   135 H135      13.069048    -1.130530    31.537577 H    1 RES 0.0000
   136 H136      22.588572    25.794751    48.025877 H    1 RES 0.0000
   137 H137       2.538918    17.525558     8.584136 H    1 RES 0.0000
   138 H138       2.538918    17.525558    41.560736 H    1 RES 0.0000
   139 H139      31.097492    17.525558    25.072436 H    1 RES 0.0000
   140 H140      31.097492    17.525558    58.049036 H    1 RES 0.0000
   141 H141       2.177828    19.932151     8.042809 H    1 RES 0.0000
   142 H142       2.177828    19.932151    41.019409 H    1 RES 0.0000
   143 H143      30.736401    19.932151    24.531109 H    1 RES 0.0000
   144 H144      30.736401    19.932151    57.507709 H    1 RES 0.0000
   145 H145       0.895621    12.877701     5.737950 H    1 RES 0.0000
   146 H146       0.895621    12.877701    38.714550 H    1 RES 0.0000
   147 H147      29.454194    12.877701    22.226250 H    1 RES 0.0000
   148 H148      29.454194    12.877701    55.202850 H    1 RES 0.0000
   149 H149      -0.383536    12.687761     3.606546 H    1 RES 0.0000
   150 H150      -0.383536    12.687761    36.583146 H    1 RES 0.0000
   151 H151      28.175037    12.687761    20.094846 H    1 RES 0.0000
   152 H152      28.175037    12.687761    53.071446 H    1 RES 0.0000
   153 H153      12.438193    -3.447445    27.238496 H    1 RES 0.0000
   154 H154      21.957717    23.477837    43.726796 H    1 RES 0.0000
   155 H155      11.834143    -4.591286    29.370277 H    1 RES 0.0000
   156 H156      21.353667    22.333995    45.858577 H    1 RES 0.0000
   157 H157       5.860554    19.965823     5.890021 H    1 RES 0.0000
   158 H158       5.860554    19.965823    38.866621 H    1 RES 0.0000
   159 H159      34.419127    19.965823    22.378321 H    1 RES 0.0000
   160 H160      34.419127    19.965823    55.354921 H    1 RES 0.0000
   161 H161      18.578637    -0.029018    26.484285 H    1 RES 0.0000
   162 H162      28.098162    26.896263    42.972585 H    1 RES 0.0000
   163 H163      20.751370    -1.103601    27.069477 H    1 RES 0.0000
   164 H164      30.270895    25.821680    43.557777 H    1 RES 0.0000
   165 H165      -5.287831    -1.129891    20.938833 H    1 RES 0.0000
   166 H166       4.231694    25.795390    37.427133 H    1 RES 0.0000
   167 H167      23.270743    -1.129891    37.427133 H    1 RES 0.0000
   168 H168      32.790267    25.795390    53.915433 H    1 RES 0.0000
   169 H169      19.853303    17.525780    18.581640 H    1 RES 0.0000
   170 H170      19.853303    17.525780    51.558240 H    1 RES 0.0000
   171 H171      20.504536    19.932447    18.624056 H    1 RES 0.0000
   172 H172      20.504536    19.932447    51.600656 H    1 RES 0.0000
   173 H173      -1.250666    -3.448168    13.642117 H    1 RES 0.0000
   174 H174       8.268859    23.477113    30.130417 H    1 RES 0.0000
   175 H175      27.307907    -3.448168    30.130417 H    1 RES 0.0000
   176 H176      36.827432    23.477113    46.618717 H    1 RES 0.0000
   177 H177      -2.793784    -4.590855    12.052069 H    1 RES 0.0000
   178 H178       6.725740    22.334426    28.540369 H    1 RES 0.0000
   179 H179      25.764789    -4.590855    28.540369 H    1 RES 0.0000
   180 H180      35.284313    22.334426    45.028669 H    1 RES 0.0000
   181 H181      23.141339    12.875989    14.395018 H    1 RES 0.0000
   182 H182      23.141339    12.875989    47.371618 H    1 RES 0.0000
   183 H183      25.627402    12.687766    14.352592 H    1 RES 0.0000
   184 H184      25.627402    12.687766    47.329192 H    1 RES 0.0000
   185 H185       2.539763    17.525867    24.391039 H    1 RES 0.0000
   186 H186      31.098336    17.525867    40.879339 H    1 RES 0.0000
   187 H187       2.177406    19.932491    24.933807 H    1 RES 0.0000
   188 H188      30.735979    19.932491    41.422107 H    1 RES 0.0000
   189 H189      13.648346    -0.029750     3.644605 H    1 RES 0.0000
   190 H190      13.648346    -0.029750    36.621205 H    1 RES 0.0000
   191 H191      23.167871    26.895531    20.132905 H    1 RES 0.0000
   192 H192      23.167871    26.895531    53.109505 H    1 RES 0.0000
   193 H193      13.067179    -1.103720     1.471121 H    1 RES 0.0000
   194 H194      13.067179    -1.103720    34.447721 H    1 RES 0.0000
   195 H195      22.586703    25.821561    17.959421 H    1 RES 0.0000
   196 H196      22.586703    25.821561    50.936021 H    1 RES 0.0000
   197 H197       4.521557    12.875947    29.331714 H    1 RES 0.0000
   198 H198      33.080130    12.875947    45.820014 H    1 RES 0.0000
   199 H199       3.315238    12.687713    31.505952 H    1 RES 0.0000
   200 H200      31.873811    12.687713    47.994252 H    1 RES 0.0000
   201 H201      19.547502    -4.608784     8.020399 H    1 RES 0.0000
   202 H202      19.547502    -4.608784    40.996999 H    1 RES 0.0000
   203 H203      29.067027    22.316497    24.508699 H    1 RES 0.0000
   204 H204      29.067027    22.316497    57.485299 H    1 RES 0.0000
   205 H205      16.719824     4.608635    12.918399 H    1 RES 0.0000
   206 H206      16.719824     4.608635    45.894999 H    1 RES 0.0000
   207 H207      26.239349    31.533916    29.406699 H    1 RES 0.0000
   208 H208      26.239349    31.533916    62.383299 H    1 RES 0.0000
   209 H209       9.918455    14.227054    20.057444 H    1 RES 0.0000
   210 H210      38.477028    14.227054    36.545744 H    1 RES 0.0000
   211 H211       9.980445     0.029793     9.997465 H    1 RES 0.0000
   212 H212       9.980445     0.029793    42.974065 H    1 RES 0.0000
   213 H213      19.499969    26.955074    26.485765 H    1 RES 0.0000
   214 H214      19.499969    26.955074    59.462365 H    1 RES 0.0000
   215 H215       7.807573     1.103762    10.580841 H    1 RES 0.0000
   216 H216       7.807573     1.103762    43.557441 H    1 RES 0.0000
   217 H217      17.327097    28.029043    27.069141 H    1 RES 0.0000
   218 H218      17.327097    28.029043    60.045741 H    1 RES 0.0000
   219 H219       3.659459     6.958922    22.377984 H    1 RES 0.0000
   220 H220      32.218032     6.958922    38.866284 H    1 RES 0.0000
   221 H221       1.250701     3.448138    13.642051 H    1 RES 0.0000
   222 H222      10.770225    30.373419    30.130351 H    1 RES 0.0000
   223 H223      29.809274     3.448138    30.130351 H    1 RES 0.0000
   224 H224      39.328799    30.373419    46.618651 H    1 RES 0.0000
   225 H225       2.793800     4.590775    12.051977 H    1 RES 0.0000
   226 H226      12.313325    31.516056    28.540277 H    1 RES 0.0000
   227 H227      31.352374     4.590775    28.540277 H    1 RES 0.0000
   228 H228      40.871898    31.516056    45.028577 H    1 RES 0.0000
   229 H229      12.410992    14.226821    14.358176 H    1 RES 0.0000
   230 H230      12.410992    14.226821    47.334776 H    1 RES 0.0000
   231 H231       5.287645     1.129816    20.938992 H    1 RES 0.0000
   232 H232      14.807170    28.055097    37.427292 H    1 RES 0.0000
   233 H233      33.846219     1.129816    37.427292 H    1 RES 0.0000
   234 H234      43.365743    28.055097    53.915592 H    1 RES 0.0000
   235 H235      17.550404     6.958878    18.618356 H    1 RES 0.0000
   236 H236      17.550404     6.958878    51.594956 H    1 RES 0.0000
   237 H237       9.010483     4.608858    24.508274 H    1 RES 0.0000
   238 H238      18.530007    31.534139    40.996574 H    1 RES 0.0000
   239 H239       6.228493    14.227390    15.048731 H    1 RES 0.0000
   240 H240       6.228493    14.227390    48.025331 H    1 RES 0.0000
   241 H241      34.787066    14.227390    31.537031 H    1 RES 0.0000
   242 H242      34.787066    14.227390    64.513631 H    1 RES 0.0000
   243 H243      15.489525     1.130530    17.927323 H    1 RES 0.0000
   244 H244      25.009050    28.055811    34.415623 H    1 RES 0.0000
   245 H245       6.980606     9.399723     7.904164 H    1 RES 0.0000
   246 H246       6.980606     9.399723    40.880764 H    1 RES 0.0000
   247 H247      35.539180     9.399723    24.392464 H    1 RES 0.0000
   248 H248      35.539180     9.399723    57.369064 H    1 RES 0.0000
   249 H249       7.341697     6.993130     8.445491 H    1 RES 0.0000
   250 H250       7.341697     6.993130    41.422091 H    1 RES 0.0000
   251 H251      35.900270     6.993130    24.933791 H    1 RES 0.0000
   252 H252      35.900270     6.993130    57.910391 H    1 RES 0.0000
   253 H253       4.203774    14.083033    13.860374 H    1 RES 0.0000
   254 H254       4.203774    14.083033    46.836974 H    1 RES 0.0000
   255 H255      32.762347    14.083033    30.348674 H    1 RES 0.0000
   256 H256      32.762347    14.083033    63.325274 H    1 RES 0.0000
   257 H257       4.139020    14.017579    12.111233 H    1 RES 0.0000
   258 H258       4.139020    14.017579    45.087833 H    1 RES 0.0000
   259 H259      32.697593    14.017579    28.599533 H    1 RES 0.0000
   260 H260      32.697593    14.017579    61.576133 H    1 RES 0.0000
   261 H261      14.451618    14.062648    13.200829 H    1 RES 0.0000
   262 H262      14.451618    14.062648    46.177429 H    1 RES 0.0000
   263 H263      15.994820    13.980119    14.017178 H    1 RES 0.0000
   264 H264      15.994820    13.980119    46.993778 H    1 RES 0.0000
   265 H265       9.900513    14.063357    22.403435 H    1 RES 0.0000
   266 H266      38.459086    14.063357    38.891735 H    1 RES 0.0000
   267 H267       8.421825    13.980312    23.331722 H    1 RES 0.0000
   268 H268      36.980399    13.980312    39.820022 H    1 RES 0.0000
   269 H269      14.660540    -0.721676    19.115883 H    1 RES 0.0000
   270 H270      24.180065    26.203605    35.604183 H    1 RES 0.0000
   271 H271      14.561190    -0.755092    20.860509 H    1 RES 0.0000
   272 H272      24.080715    26.170189    37.348809 H    1 RES 0.0000
   273 H273      18.076290     8.937396    19.775813 H    1 RES 0.0000
   274 H274      18.076290     8.937396    52.752413 H    1 RES 0.0000
   275 H275      18.512416    10.420080    18.959375 H    1 RES 0.0000
   276 H276      18.512416    10.420080    51.935975 H    1 RES 0.0000
   277 H277      16.578128     4.640926    10.570762 H    1 RES 0.0000
   278 H278      16.578128     4.640926    43.547362 H    1 RES 0.0000
   279 H279      26.097652    31.566207    27.059062 H    1 RES 0.0000
   280 H280      26.097652    31.566207    60.035662 H    1 RES 0.0000
   281 H281      16.022276     3.265101     9.640112 H    1 RES 0.0000
   282 H282      16.022276     3.265101    42.616712 H    1 RES 0.0000
   283 H283      25.541800    30.190382    26.128412 H    1 RES 0.0000
   284 H284      25.541800    30.190382    59.105012 H    1 RES 0.0000
   285 H285       2.383155     8.932496    10.706913 H    1 RES 0.0000
   286 H286       2.383155     8.932496    43.683513 H    1 RES 0.0000
   287 H287      30.941728     8.932496    27.195213 H    1 RES 0.0000
   288 H288      30.941728     8.932496    60.171813 H    1 RES 0.0000
   289 H289       2.864677    10.412808     9.904060 H    1 RES 0.0000
   290 H290       2.864677    10.412808    42.880660 H    1 RES 0.0000
   291 H291      31.423251    10.412808    26.392360 H    1 RES 0.0000
   292 H292      31.423251    10.412808    59.368960 H    1 RES 0.0000
   293 H293       4.664447    -0.730639    13.334767 H    1 RES 0.0000
   294 H294      14.183972    26.194642    29.823067 H    1 RES 0.0000
   295 H295      33.223021    -0.730639    29.823067 H    1 RES 0.0000
   296 H296      42.742545    26.194642    46.311367 H    1 RES 0.0000
   297 H297       3.191077    -0.770093    14.281014 H    1 RES 0.0000
   298 H298      12.710601    26.155189    30.769314 H    1 RES 0.0000
   299 H299      31.749650    -0.770093    30.769314 H    1 RES 0.0000
   300 H300      41.269174    26.155189    47.257614 H    1 RES 0.0000
   301 H301      11.115266     4.641229     7.417329 H    1 RES 0.0000
   302 H302      11.115266     4.641229    40.393929 H    1 RES 0.0000
   303 H303      20.634790    31.566511    23.905629 H    1 RES 0.0000
   304 H304      20.634790    31.566511    56.882229 H    1 RES 0.0000
   305 H305      12.198900     3.265273     7.432913 H    1 RES 0.0000
   306 H306      12.198900     3.265273    40.409513 H    1 RES 0.0000
   307 H307      21.718424    30.190555    23.921213 H    1 RES 0.0000
   308 H308      21.718424    30.190555    56.897813 H    1 RES 0.0000
   309 H309      11.122329     4.646507    25.542433 H    1 RES 0.0000
   310 H310      20.641853    31.571788    42.030733 H    1 RES 0.0000
   311 H311      12.211844     3.280069    25.511910 H    1 RES 0.0000
   312 H312      21.731368    30.205350    42.000210 H    1 RES 0.0000
   313 H313       4.664002    -0.730988    19.642461 H    1 RES 0.0000
   314 H314      14.183526    26.194293    36.130761 H    1 RES 0.0000
   315 H315      33.222575    -0.730988    36.130761 H    1 RES 0.0000
   316 H316      42.742100    26.194293    52.619061 H    1 RES 0.0000
   317 H317       3.190849    -0.770221    18.695754 H    1 RES 0.0000
   318 H318      12.710373    26.155060    35.184054 H    1 RES 0.0000
   319 H319      31.749422    -0.770221    35.184054 H    1 RES 0.0000
   320 H320      41.268946    26.155060    51.672354 H    1 RES 0.0000
   321 H321       2.394454     8.937567    22.254341 H    1 RES 0.0000
   322 H322      30.953028     8.937567    38.742641 H    1 RES 0.0000
   323 H323       2.883138    10.420021    23.040615 H    1 RES 0.0000
   324 H324      31.441711    10.420021    39.528915 H    1 RES 0.0000
   325 H325      11.980446    -4.640926     5.917538 H    1 RES 0.0000
   326 H326      11.980446    -4.640926    38.894138 H    1 RES 0.0000
   327 H327      21.499970    22.284355    22.405838 H    1 RES 0.0000
   328 H328      21.499970    22.284355    55.382438 H    1 RES 0.0000
   329 H329      12.536298    -3.265101     6.848188 H    1 RES 0.0000
   330 H330      12.536298    -3.265101    39.824788 H    1 RES 0.0000
   331 H331      22.055822    23.660180    23.336488 H    1 RES 0.0000
   332 H332      22.055822    23.660180    56.313088 H    1 RES 0.0000
   333 H333      20.001808    17.987885    13.200787 H    1 RES 0.0000
   334 H334      20.001808    17.987885    46.177387 H    1 RES 0.0000
   335 H335      19.565683    16.505201    14.017225 H    1 RES 0.0000
   336 H336      19.565683    16.505201    46.993825 H    1 RES 0.0000
   337 H337      13.898033     0.721676    30.349017 H    1 RES 0.0000
   338 H338      23.417558    27.646957    46.837317 H    1 RES 0.0000
   339 H339      13.997383     0.755092    28.604391 H    1 RES 0.0000
   340 H340      23.516908    27.680373    45.092691 H    1 RES 0.0000
   341 H341      -0.380988    12.861924    27.061465 H    1 RES 0.0000
   342 H342      28.177585    12.861924    43.549765 H    1 RES 0.0000
   343 H343       1.097699    12.944969    26.133178 H    1 RES 0.0000
   344 H344      29.656273    12.944969    42.621478 H    1 RES 0.0000
   345 H345      23.626480    12.862633    19.775771 H    1 RES 0.0000
   346 H346      23.626480    12.862633    52.752371 H    1 RES 0.0000
   347 H347      22.083278    12.945162    18.959422 H    1 RES 0.0000
   348 H348      22.083278    12.945162    51.936022 H    1 RES 0.0000
   349 H349       5.315751    12.842248     2.627926 H    1 RES 0.0000
   350 H350       5.315751    12.842248    35.604526 H    1 RES 0.0000
   351 H351      33.874324    12.842248    19.116226 H    1 RES 0.0000
   352 H352      33.874324    12.842248    52.092826 H    1 RES 0.0000
   353 H353       5.380505    12.907702     4.377067 H    1 RES 0.0000
   354 H354       5.380505    12.907702    37.353667 H    1 RES 0.0000
   355 H355      33.939078    12.907702    20.865367 H    1 RES 0.0000
   356 H356      33.939078    12.907702    53.841967 H    1 RES 0.0000
   357 H357      17.443308    -4.641229     9.070971 H    1 RES 0.0000
   358 H358      17.443308    -4.641229    42.047571 H    1 RES 0.0000
   359 H359      26.962832    22.284052    25.559271 H    1 RES 0.0000
   360 H360      26.962832    22.284052    58.535871 H    1 RES 0.0000
   361 H361      16.359674    -3.265273     9.055387 H    1 RES 0.0000
   362 H362      16.359674    -3.265273    42.031987 H    1 RES 0.0000
   363 H363      25.879198    23.660008    25.543687 H    1 RES 0.0000
   364 H364      25.879198    23.660008    58.520287 H    1 RES 0.0000
   365 H365      -4.664447     0.730639    19.641833 H    1 RES 0.0000
   366 H366       4.855077    27.655920    36.130133 H    1 RES 0.0000
   367 H367      23.894126     0.730639    36.130133 H    1 RES 0.0000
   368 H368      33.413650    27.655920    52.618433 H    1 RES 0.0000
   369 H369      -3.191076     0.770092    18.695587 H    1 RES 0.0000
   370 H370       6.328448    27.695374    35.183887 H    1 RES 0.0000
   371 H371      25.367497     0.770092    35.183887 H    1 RES 0.0000
   372 H372      34.887021    27.695374    51.672187 H    1 RES 0.0000
   373 H373       7.136370    17.992785     5.781387 H    1 RES 0.0000
   374 H374       7.136370    17.992785    38.757987 H    1 RES 0.0000
   375 H375      35.694943    17.992785    22.269687 H    1 RES 0.0000
   376 H376      35.694943    17.992785    55.246287 H    1 RES 0.0000
   377 H377       6.654847    16.512473     6.584240 H    1 RES 0.0000
   378 H378       6.654847    16.512473    39.560840 H    1 RES 0.0000
   379 H379      35.213421    16.512473    23.072540 H    1 RES 0.0000
   380 H380      35.213421    16.512473    56.049140 H    1 RES 0.0000
   381 H381       7.125070    17.987715    27.210559 H    1 RES 0.0000
   382 H382      35.683644    17.987715    43.698859 H    1 RES 0.0000
   383 H383       6.636387    16.505260    26.424285 H    1 RES 0.0000
   384 H384      35.194961    16.505260    42.912585 H    1 RES 0.0000
   385 H385      -4.664002     0.730989    13.334139 H    1 RES 0.0000
   386 H386       4.855523    27.656270    29.822439 H    1 RES 0.0000
   387 H387      23.894572     0.730989    29.822439 H    1 RES 0.0000
   388 H388      33.414096    27.656270    46.310739 H    1 RES 0.0000
   389 H389      -3.190848     0.770221    14.280846 H    1 RES 0.0000
   390 H390       6.328676    27.695503    30.769146 H    1 RES 0.0000
   391 H391      25.367725     0.770221    30.769146 H    1 RES 0.0000
   392 H392      34.887249    27.695503    47.257446 H    1 RES 0.0000
   393 H393      17.436245    -4.646507    23.922467 H    1 RES 0.0000
   394 H394      26.955769    22.278774    40.410767 H    1 RES 0.0000
   395 H395      16.346730    -3.280069    23.952990 H    1 RES 0.0000
   396 H396      25.866254    23.645212    40.441290 H    1 RES 0.0000
   397 C397       8.120442    14.093380    11.703890 C    1 RES 0.0000
   398 C398       8.120442    14.093380    44.680490 C    1 RES 0.0000
   399 C399      36.679016    14.093380    28.192190 C    1 RES 0.0000
   400 C400      36.679016    14.093380    61.168790 C    1 RES 0.0000
   401 C401       8.825979    14.194759    12.876094 C    1 RES 0.0000
   402 C402       8.825979    14.194759    45.852694 C    1 RES 0.0000
   403 C403      37.384552    14.194759    29.364394 C    1 RES 0.0000
   404 C404      37.384552    14.194759    62.340994 C    1 RES 0.0000
   405 C405      15.994426     2.958505    21.272451 C    1 RES 0.0000
   406 C406      25.513950    29.883787    37.760751 C    1 RES 0.0000
   407 C407      16.324846     3.590114    20.100190 C    1 RES 0.0000
   408 C408      25.844370    30.515395    36.588490 C    1 RES 0.0000
   409 C409       4.150471     8.847812     9.691542 C    1 RES 0.0000
   410 C410       4.150471     8.847812    42.668142 C    1 RES 0.0000
   411 C411      32.709044     8.847812    26.179842 C    1 RES 0.0000
   412 C412      32.709044     8.847812    59.156442 C    1 RES 0.0000
   413 C413       4.381719     7.498565    10.003315 C    1 RES 0.0000
   414 C414       4.381719     7.498565    42.979915 C    1 RES 0.0000
   415 C415      32.940292     7.498565    26.491615 C    1 RES 0.0000
   416 C416      32.940292     7.498565    59.468215 C    1 RES 0.0000
   417 C417       9.743642     1.030274    23.307097 C    1 RES 0.0000
   418 C418      19.263166    27.955555    39.795397 C    1 RES 0.0000
   419 C419       8.548818     1.621111    22.982138 C    1 RES 0.0000
   420 C420      18.068343    28.546392    39.470438 C    1 RES 0.0000
   421 C421       3.530478     0.963830    13.268117 C    1 RES 0.0000
   422 C422      13.050003    27.889112    29.756417 C    1 RES 0.0000
   423 C423      32.089052     0.963830    29.756417 C    1 RES 0.0000
   424 C424      41.608576    27.889112    46.244717 C    1 RES 0.0000
   425 C425       4.397981     1.631603    12.389104 C    1 RES 0.0000
   426 C426      13.917505    28.556884    28.877404 C    1 RES 0.0000
   427 C427      32.956554     1.631603    28.877404 C    1 RES 0.0000
   428 C428      42.476079    28.556884    45.365704 C    1 RES 0.0000
   429 C429      18.074922     8.842969    15.307510 C    1 RES 0.0000
   430 C430      18.074922     8.842969    48.284110 C    1 RES 0.0000
   431 C431      17.714114     7.519533    15.282532 C    1 RES 0.0000
   432 C432      17.714114     7.519533    48.259132 C    1 RES 0.0000
   433 C433       2.138776     2.958233    19.703311 C    1 RES 0.0000
   434 C434      11.658301    29.883514    36.191611 C    1 RES 0.0000
   435 C435      30.697349     2.958233    36.191611 C    1 RES 0.0000
   436 C436      40.216874    29.883514    52.679911 C    1 RES 0.0000
   437 C437       2.988554     3.589626    20.575860 C    1 RES 0.0000
   438 C438      12.508078    30.514908    37.064160 C    1 RES 0.0000
   439 C439      31.547127     3.589626    37.064160 C    1 RES 0.0000
   440 C440      41.066652    30.514908    53.552460 C    1 RES 0.0000
   441 C441      14.362092    14.093521    17.669028 C    1 RES 0.0000
   442 C442      14.362092    14.093521    50.645628 C    1 RES 0.0000
   443 C443      12.994072    14.194507    17.693987 C    1 RES 0.0000
   444 C444      12.994072    14.194507    50.670587 C    1 RES 0.0000
   445 C445       6.264396     8.842870    24.487804 C    1 RES 0.0000
   446 C446      34.822969     8.842870    40.976104 C    1 RES 0.0000
   447 C447       6.466409     7.519426    24.187826 C    1 RES 0.0000
   448 C448      35.024982     7.519426    40.676126 C    1 RES 0.0000
   449 C449      15.312581     1.030380    12.884454 C    1 RES 0.0000
   450 C450      15.312581     1.030380    45.861054 C    1 RES 0.0000
   451 C451      24.832105    27.955661    29.372754 C    1 RES 0.0000
   452 C452      24.832105    27.955661    62.349354 C    1 RES 0.0000
   453 C453      15.628959     1.621094    14.081569 C    1 RES 0.0000
   454 C454      15.628959     1.621094    47.058169 C    1 RES 0.0000
   455 C455      25.148483    28.546375    30.569869 C    1 RES 0.0000
   456 C456      25.148483    28.546375    63.546469 C    1 RES 0.0000
   457 C457       6.075591    14.093544    20.091790 C    1 RES 0.0000
   458 C458      34.634164    14.093544    36.580090 C    1 RES 0.0000
   459 C459       6.737967    14.194516    18.894563 C    1 RES 0.0000
   460 C460      35.296540    14.194516    35.382863 C    1 RES 0.0000
   461 C461      10.447760     3.007290     8.440184 C    1 RES 0.0000
   462 C462      10.447760     3.007290    41.416784 C    1 RES 0.0000
   463 C463      19.967284    29.932571    24.928484 C    1 RES 0.0000
   464 C464      19.967284    29.932571    57.905084 C    1 RES 0.0000
   465 C465       9.227137     3.602589     8.796337 C    1 RES 0.0000
   466 C466       9.227137     3.602589    41.772937 C    1 RES 0.0000
   467 C467      18.746661    30.527870    25.284637 C    1 RES 0.0000
   468 C468      18.746661    30.527870    58.261237 C    1 RES 0.0000
   469 C469      12.533395    -3.007273     4.827956 C    1 RES 0.0000
   470 C470      12.533395    -3.007273    37.804556 C    1 RES 0.0000
   471 C471      22.052920    23.918008    21.316256 C    1 RES 0.0000
   472 C472      22.052920    23.918008    54.292856 C    1 RES 0.0000
   473 C473      12.231414    -3.602516     3.592811 C    1 RES 0.0000
   474 C474      12.231414    -3.602516    36.569411 C    1 RES 0.0000
   475 C475      21.750938    23.322766    20.081111 C    1 RES 0.0000
   476 C476      21.750938    23.322766    53.057711 C    1 RES 0.0000
   477 C477       1.342056    12.820199    28.149164 C    1 RES 0.0000
   478 C478      29.900630    12.820199    44.637464 C    1 RES 0.0000
   479 C479       0.680556    12.732859    29.384212 C    1 RES 0.0000
   480 C480      29.239129    12.732859    45.872512 C    1 RES 0.0000
   481 C481      18.814595    -1.030425     6.818910 C    1 RES 0.0000
   482 C482      18.814595    -1.030425    39.795510 C    1 RES 0.0000
   483 C483      28.334120    25.894856    23.307210 C    1 RES 0.0000
   484 C484      28.334120    25.894856    56.283810 C    1 RES 0.0000
   485 C485      20.009501    -1.621165     6.494346 C    1 RES 0.0000
   486 C486      20.009501    -1.621165    39.470946 C    1 RES 0.0000
   487 C487      29.529025    25.304116    22.982646 C    1 RES 0.0000
   488 C488      29.529025    25.304116    55.959246 C    1 RES 0.0000
   489 C489       5.368484    18.077697    26.181120 C    1 RES 0.0000
   490 C490      33.927058    18.077697    42.669420 C    1 RES 0.0000
   491 C491       5.137595    19.427052    26.491774 C    1 RES 0.0000
   492 C492      33.696168    19.427052    42.980074 C    1 RES 0.0000
   493 C493      -2.138810    -2.958194    19.703372 C    1 RES 0.0000
   494 C494       7.380715    23.967087    36.191672 C    1 RES 0.0000
   495 C495      26.419763    -2.958194    36.191672 C    1 RES 0.0000
   496 C496      35.939288    23.967087    52.679972 C    1 RES 0.0000
   497 C497      -2.988610    -3.589569    20.575909 C    1 RES 0.0000
   498 C498       6.530914    23.335712    37.064209 C    1 RES 0.0000
   499 C499      25.569963    -3.589569    37.064209 C    1 RES 0.0000
   500 C500      35.089488    23.335712    53.552509 C    1 RES 0.0000
   501 C501      23.706908    12.820168    17.739803 C    1 RES 0.0000
   502 C502      23.706908    12.820168    50.716403 C    1 RES 0.0000
   503 C503      25.107251    12.732873    17.695175 C    1 RES 0.0000
   504 C504      25.107251    12.732873    50.671775 C    1 RES 0.0000
   505 C505      -3.530472    -0.963865    13.268217 C    1 RES 0.0000
   506 C506       5.989052    25.961416    29.756517 C    1 RES 0.0000
   507 C507      25.028101    -0.963865    29.756517 C    1 RES 0.0000
   508 C508      34.547625    25.961416    46.244817 C    1 RES 0.0000
   509 C509      -4.397898    -1.631587    12.389121 C    1 RES 0.0000
   510 C510       5.121627    25.293694    28.877421 C    1 RES 0.0000
   511 C511      24.160675    -1.631587    28.877421 C    1 RES 0.0000
   512 C512      33.680200    25.293694    45.365721 C    1 RES 0.0000
   513 C513      19.989287    18.077645    15.236837 C    1 RES 0.0000
   514 C514      19.989287    18.077645    48.213437 C    1 RES 0.0000
   515 C515      20.373720    19.427005    15.281484 C    1 RES 0.0000
   516 C516      20.373720    19.427005    48.258084 C    1 RES 0.0000
   517 C517      18.110715    -3.008097    24.929649 C    1 RES 0.0000
   518 C518      27.630240    23.917185    41.417949 C    1 RES 0.0000
   519 C519      19.331721    -3.602652    25.284901 C    1 RES 0.0000
   520 C520      28.851245    23.322629    41.773201 C    1 RES 0.0000
   521 C521       3.509876    12.819023     3.576630 C    1 RES 0.0000
   522 C522       3.509876    12.819023    36.553230 C    1 RES 0.0000
   523 C523      32.068449    12.819023    20.064930 C    1 RES 0.0000
   524 C524      32.068449    12.819023    53.041530 C    1 RES 0.0000
   525 C525       2.771139    12.732726     2.385869 C    1 RES 0.0000
   526 C526       2.771139    12.732726    35.362469 C    1 RES 0.0000
   527 C527      31.329713    12.732726    18.874169 C    1 RES 0.0000
   528 C528      31.329713    12.732726    51.850769 C    1 RES 0.0000
   529 C529      13.256859    -0.964444    29.400686 C    1 RES 0.0000
   530 C530      22.776384    25.960838    45.888986 C    1 RES 0.0000
   531 C531      12.928283    -1.631913    30.591105 C    1 RES 0.0000
   532 C532      22.447808    25.293368    47.079405 C    1 RES 0.0000
   533 C533       3.255330    18.082045     7.999422 C    1 RES 0.0000
   534 C534       3.255330    18.082045    40.976022 C    1 RES 0.0000
   535 C535      31.813904    18.082045    24.487722 C    1 RES 0.0000
   536 C536      31.813904    18.082045    57.464322 C    1 RES 0.0000
   537 C537       3.053577    19.405527     7.699742 C    1 RES 0.0000
   538 C538       3.053577    19.405527    40.676342 C    1 RES 0.0000
   539 C539      31.612150    19.405527    24.188042 C    1 RES 0.0000
   540 C540      31.612150    19.405527    57.164642 C    1 RES 0.0000
   541 C541       1.399082    12.831901     4.784410 C    1 RES 0.0000
   542 C542       1.399082    12.831901    37.761010 C    1 RES 0.0000
   543 C543      29.957656    12.831901    21.272710 C    1 RES 0.0000
   544 C544      29.957656    12.831901    54.249310 C    1 RES 0.0000
   545 C545       0.693546    12.730522     3.612206 C    1 RES 0.0000
   546 C546       0.693546    12.730522    36.588806 C    1 RES 0.0000
   547 C547      29.252119    12.730522    20.100506 C    1 RES 0.0000
   548 C548      29.252119    12.730522    53.077106 C    1 RES 0.0000
   549 C549      12.564148    -2.958505    28.192449 C    1 RES 0.0000
   550 C550      22.083672    23.966776    44.680749 C    1 RES 0.0000
   551 C551      12.233728    -3.590114    29.364710 C    1 RES 0.0000
   552 C552      21.753252    23.335168    45.853010 C    1 RES 0.0000
   553 C553       5.369054    18.077469     6.796757 C    1 RES 0.0000
   554 C554       5.369054    18.077469    39.773357 C    1 RES 0.0000
   555 C555      33.927627    18.077469    23.285057 C    1 RES 0.0000
   556 C556      33.927627    18.077469    56.261657 C    1 RES 0.0000
   557 C557       5.137806    19.426716     6.484985 C    1 RES 0.0000
   558 C558       5.137806    19.426716    39.461585 C    1 RES 0.0000
   559 C559      33.696379    19.426716    22.973285 C    1 RES 0.0000
   560 C560      33.696379    19.426716    55.949885 C    1 RES 0.0000
   561 C561      18.814932    -1.030274    26.157803 C    1 RES 0.0000
   562 C562      28.334456    25.895007    42.646103 C    1 RES 0.0000
   563 C563      20.009755    -1.621111    26.482762 C    1 RES 0.0000
   564 C564      29.529280    25.304170    42.971062 C    1 RES 0.0000
   565 C565      -3.530478    -0.963830    19.708483 C    1 RES 0.0000
   566 C566       5.989046    25.961451    36.196783 C    1 RES 0.0000
   567 C567      25.028095    -0.963830    36.196783 C    1 RES 0.0000
   568 C568      34.547620    25.961451    52.685083 C    1 RES 0.0000
   569 C569      -4.397981    -1.631603    20.587496 C    1 RES 0.0000
   570 C570       5.121544    25.293679    37.075796 C    1 RES 0.0000
   571 C571      24.160592    -1.631603    37.075796 C    1 RES 0.0000
   572 C572      33.680117    25.293679    53.564096 C    1 RES 0.0000
   573 C573      20.003176    18.082312    17.669089 C    1 RES 0.0000
   574 C574      20.003176    18.082312    50.645689 C    1 RES 0.0000
   575 C575      20.363984    19.405748    17.694068 C    1 RES 0.0000
   576 C576      20.363984    19.405748    50.670668 C    1 RES 0.0000
   577 C577      -2.138776    -2.958233    13.273289 C    1 RES 0.0000
   578 C578       7.380748    23.967048    29.761589 C    1 RES 0.0000
   579 C579      26.419797    -2.958233    29.761589 C    1 RES 0.0000
   580 C580      35.939322    23.967048    46.249889 C    1 RES 0.0000
   581 C581      -2.988554    -3.589627    12.400740 C    1 RES 0.0000
   582 C582       6.530970    23.335655    28.889040 C    1 RES 0.0000
   583 C583      25.570019    -3.589627    28.889040 C    1 RES 0.0000
   584 C584      35.089544    23.335655    45.377340 C    1 RES 0.0000
   585 C585      23.716006    12.831761    15.307572 C    1 RES 0.0000
   586 C586      23.716006    12.831761    48.284172 C    1 RES 0.0000
   587 C587      25.084026    12.730774    15.282612 C    1 RES 0.0000
   588 C588      25.084026    12.730774    48.259212 C    1 RES 0.0000
   589 C589       3.255129    18.082411    24.977096 C    1 RES 0.0000
   590 C590      31.813702    18.082411    41.465396 C    1 RES 0.0000
   591 C591       3.053115    19.405855    25.277074 C    1 RES 0.0000
   592 C592      31.611689    19.405855    41.765374 C    1 RES 0.0000
   593 C593      13.245992    -1.030380     3.603846 C    1 RES 0.0000
   594 C594      13.245992    -1.030380    36.580446 C    1 RES 0.0000
   595 C595      22.765517    25.894901    20.092146 C    1 RES 0.0000
   596 C596      22.765517    25.894901    53.068746 C    1 RES 0.0000
   597 C597      12.929615    -1.621094     2.406731 C    1 RES 0.0000
   598 C598      12.929615    -1.621094    35.383331 C    1 RES 0.0000
   599 C599      22.449139    25.304188    18.895031 C    1 RES 0.0000
   600 C600      22.449139    25.304188    51.871631 C    1 RES 0.0000
   601 C601       3.443934    12.831738    29.373110 C    1 RES 0.0000
   602 C602      32.002507    12.831738    45.861410 C    1 RES 0.0000
   603 C603       2.781558    12.730765    30.570337 C    1 RES 0.0000
   604 C604      31.340131    12.730765    47.058637 C    1 RES 0.0000
   605 C605      18.110814    -3.007290     8.048116 C    1 RES 0.0000
   606 C606      18.110814    -3.007290    41.024716 C    1 RES 0.0000
   607 C607      27.630338    23.917991    24.536416 C    1 RES 0.0000
   608 C608      27.630338    23.917991    57.513016 C    1 RES 0.0000
   609 C609      19.331437    -3.602589     7.691963 C    1 RES 0.0000
   610 C610      19.331437    -3.602589    40.668563 C    1 RES 0.0000
   611 C611      28.850961    23.322693    24.180263 C    1 RES 0.0000
   612 C612      28.850961    23.322693    57.156863 C    1 RES 0.0000
   613 C613      16.025178     3.007273    11.660344 C    1 RES 0.0000
   614 C614      16.025178     3.007273    44.636944 C    1 RES 0.0000
   615 C615      25.544702    29.932554    28.148644 C    1 RES 0.0000
   616 C616      25.544702    29.932554    61.125244 C    1 RES 0.0000
   617 C617      16.327160     3.602516    12.895488 C    1 RES 0.0000
   618 C618      16.327160     3.602516    45.872088 C    1 RES 0.0000
   619 C619      25.846684    30.527797    29.383788 C    1 RES 0.0000
   620 C620      25.846684    30.527797    62.360388 C    1 RES 0.0000
   621 C621       8.177468    14.105082    21.315736 C    1 RES 0.0000
   622 C622      36.736041    14.105082    37.804036 C    1 RES 0.0000
   623 C623       8.838969    14.192423    20.080688 C    1 RES 0.0000
   624 C624      37.397542    14.192423    36.568988 C    1 RES 0.0000
   625 C625       9.743978     1.030425     9.669390 C    1 RES 0.0000
   626 C626       9.743978     1.030425    42.645990 C    1 RES 0.0000
   627 C627      19.263503    27.955706    26.157690 C    1 RES 0.0000
   628 C628      19.263503    27.955706    59.134290 C    1 RES 0.0000
   629 C629       8.549073     1.621166     9.993954 C    1 RES 0.0000
   630 C630       8.549073     1.621166    42.970554 C    1 RES 0.0000
   631 C631      18.068597    28.546447    26.482254 C    1 RES 0.0000
   632 C632      18.068597    28.546447    59.458854 C    1 RES 0.0000
   633 C633       4.151040     8.847584    23.283780 C    1 RES 0.0000
   634 C634      32.709614     8.847584    39.772080 C    1 RES 0.0000
   635 C635       4.381930     7.498229    22.973126 C    1 RES 0.0000
   636 C636      32.940503     7.498229    39.461426 C    1 RES 0.0000
   637 C637       2.138810     2.958194    13.273228 C    1 RES 0.0000
   638 C638      11.658334    29.883475    29.761528 C    1 RES 0.0000
   639 C639      30.697383     2.958194    29.761528 C    1 RES 0.0000
   640 C640      40.216908    29.883475    46.249828 C    1 RES 0.0000
   641 C641       2.988610     3.589569    12.400691 C    1 RES 0.0000
   642 C642      12.508135    30.514851    28.888991 C    1 RES 0.0000
   643 C643      31.547184     3.589569    28.888991 C    1 RES 0.0000
   644 C644      41.066708    30.514851    45.377291 C    1 RES 0.0000
   645 C645      14.371190    14.105113    15.236796 C    1 RES 0.0000
   646 C646      14.371190    14.105113    48.213396 C    1 RES 0.0000
   647 C647      12.970847    14.192408    15.281425 C    1 RES 0.0000
   648 C648      12.970847    14.192408    48.258025 C    1 RES 0.0000
   649 C649       3.530472     0.963865    19.708383 C    1 RES 0.0000
   650 C650      13.049997    27.889146    36.196683 C    1 RES 0.0000
   651 C651      32.089046     0.963865    36.196683 C    1 RES 0.0000
   652 C652      41.608570    27.889146    52.684983 C    1 RES 0.0000
   653 C653       4.397898     1.631587    20.587479 C    1 RES 0.0000
   654 C654      13.917422    28.556868    37.075779 C    1 RES 0.0000
   655 C655      32.956471     1.631587    37.075779 C    1 RES 0.0000
   656 C656      42.475996    28.556868    53.564079 C    1 RES 0.0000
   657 C657      18.088811     8.847636    17.739763 C    1 RES 0.0000
   658 C658      18.088811     8.847636    50.716363 C    1 RES 0.0000
   659 C659      17.704378     7.498276    17.695116 C    1 RES 0.0000
   660 C660      17.704378     7.498276    50.671716 C    1 RES 0.0000
   661 C661      10.447858     3.008097    24.535251 C    1 RES 0.0000
   662 C662      19.967382    29.933378    41.023551 C    1 RES 0.0000
   663 C663       9.226853     3.602652    24.179999 C    1 RES 0.0000
   664 C664      18.746377    30.527933    40.668299 C    1 RES 0.0000
   665 C665       6.009649    14.106258    12.911670 C    1 RES 0.0000
   666 C666       6.009649    14.106258    45.888270 C    1 RES 0.0000
   667 C667      34.568222    14.106258    29.399970 C    1 RES 0.0000
   668 C668      34.568222    14.106258    62.376570 C    1 RES 0.0000
   669 C669       6.748385    14.192555    14.102431 C    1 RES 0.0000
   670 C670       6.748385    14.192555    47.079031 C    1 RES 0.0000
   671 C671      35.306959    14.192555    30.590731 C    1 RES 0.0000
   672 C672      35.306959    14.192555    63.567331 C    1 RES 0.0000
   673 C673      15.301714     0.964444    20.064214 C    1 RES 0.0000
   674 C674      24.821239    27.889725    36.552514 C    1 RES 0.0000
   675 C675      15.630290     1.631913    18.873795 C    1 RES 0.0000
   676 C676      25.149814    28.557194    35.362095 C    1 RES 0.0000
   677 C677       6.264194     8.843236     8.488878 C    1 RES 0.0000
   678 C678       6.264194     8.843236    41.465478 C    1 RES 0.0000
   679 C679      34.822768     8.843236    24.977178 C    1 RES 0.0000
   680 C680      34.822768     8.843236    57.953778 C    1 RES 0.0000
   681 C681       6.465948     7.519754     8.788558 C    1 RES 0.0000
   682 C682       6.465948     7.519754    41.765158 C    1 RES 0.0000
   683 C683      35.024521     7.519754    25.276858 C    1 RES 0.0000
   684 C684      35.024521     7.519754    58.253458 C    1 RES 0.0000
   685 C685       6.051799    13.865650    10.383129 C    1 RES 0.0000
   686 C686       6.051799    13.865650    43.359729 C    1 RES 0.0000
   687 C687      34.610372    13.865650    26.871429 C    1 RES 0.0000
   688 C688      34.610372    13.865650    59.848029 C    1 RES 0.0000
   689 C689       6.720461    14.035909    11.689488 C    1 RES 0.0000
   690 C690       6.720461    14.035909    44.666088 C    1 RES 0.0000
   691 C691      35.279035    14.035909    28.177788 C    1 RES 0.0000
   692 C692      35.279035    14.035909    61.154388 C    1 RES 0.0000
   693 C693       8.129906    14.231059    14.093123 C    1 RES 0.0000
   694 C694       8.129906    14.231059    47.069723 C    1 RES 0.0000
   695 C695      36.688479    14.231059    30.581423 C    1 RES 0.0000
   696 C696      36.688479    14.231059    63.558023 C    1 RES 0.0000
   697 C697       8.864881    14.278521    15.360857 C    1 RES 0.0000
   698 C698       8.864881    14.278521    48.337457 C    1 RES 0.0000
   699 C699      37.423455    14.278521    31.849157 C    1 RES 0.0000
   700 C700      37.423455    14.278521    64.825757 C    1 RES 0.0000
   701 C701      15.085178     1.084796    22.591723 C    1 RES 0.0000
   702 C702      24.604703    28.010077    39.080023 C    1 RES 0.0000
   703 C703      15.471503     1.658651    21.286260 C    1 RES 0.0000
   704 C704      24.991027    28.583932    37.774560 C    1 RES 0.0000
   705 C705      16.126757     2.921778    18.883205 C    1 RES 0.0000
   706 C706      25.646282    29.847059    35.371505 C    1 RES 0.0000
   707 C707      16.416691     3.598693    17.615396 C    1 RES 0.0000
   708 C708      16.416691     3.598693    50.591996 C    1 RES 0.0000
   709 C709      25.936216    30.523975    34.103696 C    1 RES 0.0000
   710 C710      25.936216    30.523975    67.080296 C    1 RES 0.0000
   711 C711       5.028962    10.972747     8.611637 C    1 RES 0.0000
   712 C712       5.028962    10.972747    41.588237 C    1 RES 0.0000
   713 C713      33.587536    10.972747    25.099937 C    1 RES 0.0000
   714 C714      33.587536    10.972747    58.076537 C    1 RES 0.0000
   715 C715       5.128792     9.534133     8.932724 C    1 RES 0.0000
   716 C716       5.128792     9.534133    41.909324 C    1 RES 0.0000
   717 C717      33.687365     9.534133    25.421024 C    1 RES 0.0000
   718 C718      33.687365     9.534133    58.397624 C    1 RES 0.0000
   719 C719       5.517551     6.842082     9.568524 C    1 RES 0.0000
   720 C720       5.517551     6.842082    42.545124 C    1 RES 0.0000
   721 C721      34.076124     6.842082    26.056824 C    1 RES 0.0000
   722 C722      34.076124     6.842082    59.033424 C    1 RES 0.0000
   723 C723       5.741811     5.444653     9.951537 C    1 RES 0.0000
   724 C724       5.741811     5.444653    42.928137 C    1 RES 0.0000
   725 C725      15.261336    32.369934    26.439837 C    1 RES 0.0000
   726 C726      15.261336    32.369934    59.416437 C    1 RES 0.0000
   727 C727      34.300385     5.444653    26.439837 C    1 RES 0.0000
   728 C728      34.300385     5.444653    59.416437 C    1 RES 0.0000
   729 C729      43.819909    32.369934    42.928137 C    1 RES 0.0000
   730 C730      43.819909    32.369934    75.904737 C    1 RES 0.0000
   731 C731      11.994754     1.006377    24.312010 C    1 RES 0.0000
   732 C732      21.514278    27.931658    40.800310 C    1 RES 0.0000
   733 C733      10.712969     1.698865    24.066443 C    1 RES 0.0000
   734 C734      20.232494    28.624146    40.554743 C    1 RES 0.0000
   735 C735       8.293351     2.930935    23.413385 C    1 RES 0.0000
   736 C736      17.812875    29.856216    39.901685 C    1 RES 0.0000
   737 C737       7.049089     3.603737    23.027777 C    1 RES 0.0000
   738 C738      16.568614    30.529018    39.516077 C    1 RES 0.0000
   739 C739      35.607663     3.603737    39.516077 C    1 RES 0.0000
   740 C740      45.127187    30.529018    56.004377 C    1 RES 0.0000
   741 C741       1.447134     1.083769    14.716765 C    1 RES 0.0000
   742 C742      10.966658    28.009050    31.205065 C    1 RES 0.0000
   743 C743      30.005707     1.083769    31.205065 C    1 RES 0.0000
   744 C744      39.525232    28.009050    47.693365 C    1 RES 0.0000
   745 C745       2.386734     1.657427    13.731504 C    1 RES 0.0000
   746 C746      11.906258    28.582708    30.219804 C    1 RES 0.0000
   747 C747      30.945307     1.657427    30.219804 C    1 RES 0.0000
   748 C748      40.464831    28.582708    46.708104 C    1 RES 0.0000
   749 C749       4.141605     2.921302    11.963578 C    1 RES 0.0000
   750 C750      13.661129    29.846584    28.451878 C    1 RES 0.0000
   751 C751      32.700178     2.921302    28.451878 C    1 RES 0.0000
   752 C752      42.219702    29.846584    44.940178 C    1 RES 0.0000
   753 C753       5.094681     3.598547    11.078827 C    1 RES 0.0000
   754 C754       5.094681     3.598547    44.055427 C    1 RES 0.0000
   755 C755      14.614205    30.523828    27.567127 C    1 RES 0.0000
   756 C756      14.614205    30.523828    60.543727 C    1 RES 0.0000
   757 C757      33.653254     3.598547    27.567127 C    1 RES 0.0000
   758 C758      33.653254     3.598547    60.543727 C    1 RES 0.0000
   759 C759      43.172779    30.523828    44.055427 C    1 RES 0.0000
   760 C760      43.172779    30.523828    77.032027 C    1 RES 0.0000
   761 C761      18.581282    10.973303    16.440295 C    1 RES 0.0000
   762 C762      18.581282    10.973303    49.416895 C    1 RES 0.0000
   763 C763      18.255803     9.533996    16.512907 C    1 RES 0.0000
   764 C764      18.255803     9.533996    49.489507 C    1 RES 0.0000
   765 C765      17.512705     6.842068    16.493875 C    1 RES 0.0000
   766 C766      17.512705     6.842068    49.470475 C    1 RES 0.0000
   767 C767      17.068973     5.444699    16.491224 C    1 RES 0.0000
   768 C768      17.068973     5.444699    49.467824 C    1 RES 0.0000
   769 C769      26.588498    32.369981    32.979524 C    1 RES 0.0000
   770 C770      26.588498    32.369981    65.956124 C    1 RES 0.0000
   771 C771       1.447091     1.083807    18.259824 C    1 RES 0.0000
   772 C772      10.966615    28.009088    34.748124 C    1 RES 0.0000
   773 C773      30.005664     1.083807    34.748124 C    1 RES 0.0000
   774 C774      39.525189    28.009088    51.236424 C    1 RES 0.0000
   775 C775       2.386726     1.657475    19.245046 C    1 RES 0.0000
   776 C776      11.906250    28.582757    35.733346 C    1 RES 0.0000
   777 C777      30.945299     1.657475    35.733346 C    1 RES 0.0000
   778 C778      40.464823    28.582757    52.221646 C    1 RES 0.0000
   779 C779       4.141433     2.921263    21.013074 C    1 RES 0.0000
   780 C780      13.660957    29.846544    37.501374 C    1 RES 0.0000
   781 C781      32.700006     2.921263    37.501374 C    1 RES 0.0000
   782 C782      42.219530    29.846544    53.989674 C    1 RES 0.0000
   783 C783       5.094453     3.598383    21.897863 C    1 RES 0.0000
   784 C784      14.613977    30.523665    38.386163 C    1 RES 0.0000
   785 C785      33.653026     3.598383    38.386163 C    1 RES 0.0000
   786 C786      43.172551    30.523665    54.874463 C    1 RES 0.0000
   787 C787      16.539432    13.860844    16.536309 C    1 RES 0.0000
   788 C788      16.539432    13.860844    49.512909 C    1 RES 0.0000
   789 C789      15.073962    14.033789    16.463650 C    1 RES 0.0000
   790 C790      15.073962    14.033789    49.440250 C    1 RES 0.0000
   791 C791      12.288203    14.230526    16.482618 C    1 RES 0.0000
   792 C792      12.288203    14.230526    49.459218 C    1 RES 0.0000
   793 C793      10.822825    14.278240    16.485109 C    1 RES 0.0000
   794 C794      10.822825    14.278240    49.461709 C    1 RES 0.0000
   795 C795      39.381398    14.278240    32.973409 C    1 RES 0.0000
   796 C796      39.381398    14.278240    65.950009 C    1 RES 0.0000
   797 C797       5.030227    10.973245    24.360009 C    1 RES 0.0000
   798 C798      33.588801    10.973245    40.848309 C    1 RES 0.0000
   799 C799       5.130021     9.533938    24.041844 C    1 RES 0.0000
   800 C800      33.688594     9.533938    40.530144 C    1 RES 0.0000
   801 C801       5.517998     6.841920    23.407784 C    1 RES 0.0000
   802 C802      34.076571     6.841920    39.896084 C    1 RES 0.0000
   803 C803       5.741892     5.444444    23.024970 C    1 RES 0.0000
   804 C804      15.261417    32.369725    39.513270 C    1 RES 0.0000
   805 C805      34.300466     5.444444    39.513270 C    1 RES 0.0000
   806 C806      43.819990    32.369725    56.001570 C    1 RES 0.0000
   807 C807      15.061379     1.003061    10.432576 C    1 RES 0.0000
   808 C808      15.061379     1.003061    43.409176 C    1 RES 0.0000
   809 C809      24.580903    27.928342    26.920876 C    1 RES 0.0000
   810 C810      24.580903    27.928342    59.897476 C    1 RES 0.0000
   811 C811      15.487570     1.697735    11.664834 C    1 RES 0.0000
   812 C812      15.487570     1.697735    44.641434 C    1 RES 0.0000
   813 C813      25.007094    28.623016    28.153134 C    1 RES 0.0000
   814 C814      25.007094    28.623016    61.129734 C    1 RES 0.0000
   815 C815      16.130520     2.930826    14.087266 C    1 RES 0.0000
   816 C816      16.130520     2.930826    47.063866 C    1 RES 0.0000
   817 C817      25.650045    29.856107    30.575566 C    1 RES 0.0000
   818 C818      25.650045    29.856107    63.552166 C    1 RES 0.0000
   819 C819      16.418736     3.603635    15.357641 C    1 RES 0.0000
   820 C820      16.418736     3.603635    48.334241 C    1 RES 0.0000
   821 C821      25.938260    30.528916    31.845941 C    1 RES 0.0000
   822 C822      25.938260    30.528916    64.822541 C    1 RES 0.0000
   823 C823       5.967968    13.860833    22.543766 C    1 RES 0.0000
   824 C824      34.526541    13.860833    39.032066 C    1 RES 0.0000
   825 C825       6.763594    14.033738    21.310925 C    1 RES 0.0000
   826 C826      35.322167    14.033738    37.799225 C    1 RES 0.0000
   827 C827       8.139948    14.230447    18.888945 C    1 RES 0.0000
   828 C828      36.698522    14.230447    35.377245 C    1 RES 0.0000
   829 C829       8.870334    14.277883    17.618579 C    1 RES 0.0000
   830 C830       8.870334    14.277883    50.595179 C    1 RES 0.0000
   831 C831      37.428908    14.277883    34.106879 C    1 RES 0.0000
   832 C832      37.428908    14.277883    67.083479 C    1 RES 0.0000
   833 C833      11.993010     1.003115     8.661028 C    1 RES 0.0000
   834 C834      11.993010     1.003115    41.637628 C    1 RES 0.0000
   835 C835      21.512534    27.928396    25.149328 C    1 RES 0.0000
   836 C836      21.512534    27.928396    58.125928 C    1 RES 0.0000
   837 C837      10.712724     1.697758     8.908026 C    1 RES 0.0000
   838 C838      10.712724     1.697758    41.884626 C    1 RES 0.0000
   839 C839      20.232248    28.623040    25.396326 C    1 RES 0.0000
   840 C840      20.232248    28.623040    58.372926 C    1 RES 0.0000
   841 C841       8.293380     2.930975     9.562601 C    1 RES 0.0000
   842 C842       8.293380     2.930975    42.539201 C    1 RES 0.0000
   843 C843      17.812905    29.856256    26.050901 C    1 RES 0.0000
   844 C844      17.812905    29.856256    59.027501 C    1 RES 0.0000
   845 C845       7.049061     3.603796     9.948323 C    1 RES 0.0000
   846 C846       7.049061     3.603796    42.924923 C    1 RES 0.0000
   847 C847      16.568585    30.529077    26.436623 C    1 RES 0.0000
   848 C848      16.568585    30.529077    59.413223 C    1 RES 0.0000
   849 C849      35.607634     3.603796    26.436623 C    1 RES 0.0000
   850 C850      35.607634     3.603796    59.413223 C    1 RES 0.0000
   851 C851      45.127159    30.529077    42.924923 C    1 RES 0.0000
   852 C852      45.127159    30.529077    75.901523 C    1 RES 0.0000
   853 C853      13.497195    -1.003061     6.055724 C    1 RES 0.0000
   854 C854      13.497195    -1.003061    39.032324 C    1 RES 0.0000
   855 C855      23.016719    25.922220    22.544024 C    1 RES 0.0000
   856 C856      23.016719    25.922220    55.520624 C    1 RES 0.0000
   857 C857      13.071004    -1.697735     4.823466 C    1 RES 0.0000
   858 C858      13.071004    -1.697735    37.800066 C    1 RES 0.0000
   859 C859      22.590528    25.227547    21.311766 C    1 RES 0.0000
   860 C860      22.590528    25.227547    54.288366 C    1 RES 0.0000
   861 C861      12.428053    -2.930826     2.401034 C    1 RES 0.0000
   862 C862      12.428053    -2.930826    35.377634 C    1 RES 0.0000
   863 C863      21.947577    23.994455    18.889334 C    1 RES 0.0000
   864 C864      21.947577    23.994455    51.865934 C    1 RES 0.0000
   865 C865      12.139838    -3.603635     1.130659 C    1 RES 0.0000
   866 C866      12.139838    -3.603635    34.107259 C    1 RES 0.0000
   867 C867      21.659362    23.321646    17.618959 C    1 RES 0.0000
   868 C868      21.659362    23.321646    50.595559 C    1 RES 0.0000
   869 C869       3.551556    13.064448    26.921134 C    1 RES 0.0000
   870 C870      32.110129    13.064448    43.409434 C    1 RES 0.0000
   871 C871       2.755931    12.891543    28.153975 C    1 RES 0.0000
   872 C872      31.314504    12.891543    44.642275 C    1 RES 0.0000
   873 C873       1.379576    12.694834    30.575955 C    1 RES 0.0000
   874 C874      29.938150    12.694834    47.064255 C    1 RES 0.0000
   875 C875       0.649190    12.647398    -1.130279 C    1 RES 0.0000
   876 C876       0.649190    12.647398    31.846321 C    1 RES 0.0000
   877 C877      29.207763    12.647398    15.358021 C    1 RES 0.0000
   878 C878      29.207763    12.647398    48.334621 C    1 RES 0.0000
   879 C879      16.565563    -1.003115     7.827273 C    1 RES 0.0000
   880 C880      16.565563    -1.003115    40.803873 C    1 RES 0.0000
   881 C881      26.085088    25.922166    24.315573 C    1 RES 0.0000
   882 C882      26.085088    25.922166    57.292173 C    1 RES 0.0000
   883 C883      17.845850    -1.697758     7.580274 C    1 RES 0.0000
   884 C884      17.845850    -1.697758    40.556874 C    1 RES 0.0000
   885 C885      27.365374    25.227523    24.068574 C    1 RES 0.0000
   886 C886      27.365374    25.227523    57.045174 C    1 RES 0.0000
   887 C887      20.265193    -2.930975     6.925699 C    1 RES 0.0000
   888 C888      20.265193    -2.930975    39.902299 C    1 RES 0.0000
   889 C889      29.784718    23.994306    23.413999 C    1 RES 0.0000
   890 C890      29.784718    23.994306    56.390599 C    1 RES 0.0000
   891 C891      -7.049061    -3.603796    -9.948323 C    1 RES 0.0000
   892 C892      -7.049061    -3.603796    23.028277 C    1 RES 0.0000
   893 C893       2.470464    23.321485     6.539977 C    1 RES 0.0000
   894 C894       2.470464    23.321485    39.516577 C    1 RES 0.0000
   895 C895      21.509512    -3.603796     6.539977 C    1 RES 0.0000
   896 C896      21.509512    -3.603796    39.516577 C    1 RES 0.0000
   897 C897      31.029037    23.321485    23.028277 C    1 RES 0.0000
   898 C898      31.029037    23.321485    56.004877 C    1 RES 0.0000
   899 C899       4.489297    15.952037    25.104891 C    1 RES 0.0000
   900 C900      33.047870    15.952037    41.593191 C    1 RES 0.0000
   901 C901       4.389504    17.391343    25.423056 C    1 RES 0.0000
   902 C902      32.948077    17.391343    41.911356 C    1 RES 0.0000
   903 C903       4.001527    20.083361    26.057116 C    1 RES 0.0000
   904 C904      32.560100    20.083361    42.545416 C    1 RES 0.0000
   905 C905      -5.741892    -5.444444     9.951630 C    1 RES 0.0000
   906 C906       3.777632    21.480838    26.439930 C    1 RES 0.0000
   907 C907      22.816681    -5.444444    26.439930 C    1 RES 0.0000
   908 C908      32.336205    21.480838    42.928230 C    1 RES 0.0000
   909 C909      -1.447134    -1.083769    18.259835 C    1 RES 0.0000
   910 C910       8.072391    25.841512    34.748135 C    1 RES 0.0000
   911 C911      27.111440    -1.083769    34.748135 C    1 RES 0.0000
   912 C912      36.630964    25.841512    51.236435 C    1 RES 0.0000
   913 C913      -2.386734    -1.657427    19.245096 C    1 RES 0.0000
   914 C914       7.132791    25.267854    35.733396 C    1 RES 0.0000
   915 C915      26.171840    -1.657427    35.733396 C    1 RES 0.0000
   916 C916      35.691364    25.267854    52.221696 C    1 RES 0.0000
   917 C917      -4.141605    -2.921302    21.013022 C    1 RES 0.0000
   918 C918       5.377920    24.003979    37.501322 C    1 RES 0.0000
   919 C919      24.416969    -2.921302    37.501322 C    1 RES 0.0000
   920 C920      33.936493    24.003979    53.989622 C    1 RES 0.0000
   921 C921      -5.094681    -3.598547   -11.078827 C    1 RES 0.0000
   922 C922      -5.094681    -3.598547    21.897773 C    1 RES 0.0000
   923 C923       4.424843    23.326734     5.409473 C    1 RES 0.0000
   924 C924       4.424843    23.326734    38.386073 C    1 RES 0.0000
   925 C925      23.463892    -3.598547     5.409473 C    1 RES 0.0000
   926 C926      23.463892    -3.598547    38.386073 C    1 RES 0.0000
   927 C927      32.983417    23.326734    21.897773 C    1 RES 0.0000
   928 C928      32.983417    23.326734    54.874373 C    1 RES 0.0000
   929 C929      21.538666    13.064438    16.440291 C    1 RES 0.0000
   930 C930      21.538666    13.064438    49.416891 C    1 RES 0.0000
   931 C931      23.004135    12.891492    16.512950 C    1 RES 0.0000
   932 C932      23.004135    12.891492    49.489550 C    1 RES 0.0000
   933 C933      25.789895    12.694755    16.493982 C    1 RES 0.0000
   934 C934      25.789895    12.694755    49.470582 C    1 RES 0.0000
   935 C935      -1.303300    12.647041     0.003191 C    1 RES 0.0000
   936 C936      -1.303300    12.647041    32.979791 C    1 RES 0.0000
   937 C937      27.255273    12.647041    16.491491 C    1 RES 0.0000
   938 C938      27.255273    12.647041    49.468091 C    1 RES 0.0000
   939 C939      -1.447091    -1.083807    14.716775 C    1 RES 0.0000
   940 C940       8.072434    25.841474    31.205075 C    1 RES 0.0000
   941 C941      27.111483    -1.083807    31.205075 C    1 RES 0.0000
   942 C942      36.631007    25.841474    47.693375 C    1 RES 0.0000
   943 C943      -2.386725    -1.657475    13.731554 C    1 RES 0.0000
   944 C944       7.132799    25.267806    30.219854 C    1 RES 0.0000
   945 C945      26.171848    -1.657475    30.219854 C    1 RES 0.0000
   946 C946      35.691372    25.267806    46.708154 C    1 RES 0.0000
   947 C947      -4.141433    -2.921263    11.963526 C    1 RES 0.0000
   948 C948       5.378092    24.004019    28.451826 C    1 RES 0.0000
   949 C949      24.417141    -2.921263    28.451826 C    1 RES 0.0000
   950 C950      33.936665    24.004019    44.940126 C    1 RES 0.0000
   951 C951      -5.094453    -3.598384    11.078737 C    1 RES 0.0000
   952 C952       4.425072    23.326898    27.567037 C    1 RES 0.0000
   953 C953      23.464120    -3.598384    27.567037 C    1 RES 0.0000
   954 C954      32.983645    23.326898    44.055337 C    1 RES 0.0000
   955 C955      19.496816    15.951978    16.536304 C    1 RES 0.0000
   956 C956      19.496816    15.951978    49.512904 C    1 RES 0.0000
   957 C957      19.822295    17.391285    16.463694 C    1 RES 0.0000
   958 C958      19.822295    17.391285    49.440294 C    1 RES 0.0000
   959 C959      20.565393    20.083213    16.482726 C    1 RES 0.0000
   960 C960      20.565393    20.083213    49.459326 C    1 RES 0.0000
   961 C961      11.489600    -5.444699    -0.002924 C    1 RES 0.0000
   962 C962      11.489600    -5.444699    32.973676 C    1 RES 0.0000
   963 C963      21.009124    21.480582    16.485376 C    1 RES 0.0000
   964 C964      21.009124    21.480582    49.461976 C    1 RES 0.0000
   965 C965      16.563820    -1.006377    25.152891 C    1 RES 0.0000
   966 C966      26.083344    25.918905    41.641191 C    1 RES 0.0000
   967 C967      17.845604    -1.698865    25.398457 C    1 RES 0.0000
   968 C968      27.365129    25.226416    41.886757 C    1 RES 0.0000
   969 C969      20.265222    -2.930935    26.051516 C    1 RES 0.0000
   970 C970      29.784747    23.994347    42.539816 C    1 RES 0.0000
   971 C971      -7.049089    -3.603737     9.948823 C    1 RES 0.0000
   972 C972       2.470435    23.321544    26.437123 C    1 RES 0.0000
   973 C973      21.509484    -3.603737    26.437123 C    1 RES 0.0000
   974 C974      31.029008    23.321544    42.925423 C    1 RES 0.0000
   975 C975       3.467726    13.059631     6.105170 C    1 RES 0.0000
   976 C976       3.467726    13.059631    39.081770 C    1 RES 0.0000
   977 C977      32.026300    13.059631    22.593470 C    1 RES 0.0000
   978 C978      32.026300    13.059631    55.570070 C    1 RES 0.0000
   979 C979       2.799063    12.889372     4.798812 C    1 RES 0.0000
   980 C980       2.799063    12.889372    37.775412 C    1 RES 0.0000
   981 C981      31.357636    12.889372    21.287112 C    1 RES 0.0000
   982 C982      31.357636    12.889372    54.263712 C    1 RES 0.0000
   983 C983       1.389619    12.694223     2.395177 C    1 RES 0.0000
   984 C984       1.389619    12.694223    35.371777 C    1 RES 0.0000
   985 C985      29.948192    12.694223    18.883477 C    1 RES 0.0000
   986 C986      29.948192    12.694223    51.860077 C    1 RES 0.0000
   987 C987       0.654643    12.646760     1.127443 C    1 RES 0.0000
   988 C988       0.654643    12.646760    34.104043 C    1 RES 0.0000
   989 C989      29.213216    12.646760    17.615743 C    1 RES 0.0000
   990 C990      29.213216    12.646760    50.592343 C    1 RES 0.0000
   991 C991      13.473395    -1.084796    26.873177 C    1 RES 0.0000
   992 C992      22.992920    25.840486    43.361477 C    1 RES 0.0000
   993 C993      13.087071    -1.658651    28.178641 C    1 RES 0.0000
   994 C994      22.606595    25.266630    44.666941 C    1 RES 0.0000
   995 C995      12.431816    -2.921778    30.581695 C    1 RES 0.0000
   996 C996      21.951341    24.003503    47.069995 C    1 RES 0.0000
   997 C997      12.141882    -3.598693    -1.127096 C    1 RES 0.0000
   998 C998      12.141882    -3.598693    31.849504 C    1 RES 0.0000
   999 C999      21.661407    23.326588    15.361204 C    1 RES 0.0000
  1000 C1000     21.661407    23.326588    48.337804 C    1 RES 0.0000
  1001 C1001      4.490563    15.952534     7.876663 C    1 RES 0.0000
  1002 C1002      4.490563    15.952534    40.853263 C    1 RES 0.0000
  1003 C1003     33.049136    15.952534    24.364963 C    1 RES 0.0000
  1004 C1004     33.049136    15.952534    57.341563 C    1 RES 0.0000
  1005 C1005      4.390733    17.391148     7.555576 C    1 RES 0.0000
  1006 C1006      4.390733    17.391148    40.532176 C    1 RES 0.0000
  1007 C1007     32.949306    17.391148    24.043876 C    1 RES 0.0000
  1008 C1008     32.949306    17.391148    57.020476 C    1 RES 0.0000
  1009 C1009      4.001974    20.083199     6.919776 C    1 RES 0.0000
  1010 C1010      4.001974    20.083199    39.896376 C    1 RES 0.0000
  1011 C1011     32.560547    20.083199    23.408076 C    1 RES 0.0000
  1012 C1012     32.560547    20.083199    56.384676 C    1 RES 0.0000
  1013 C1013     -5.741811    -5.444653    -9.951537 C    1 RES 0.0000
  1014 C1014     -5.741811    -5.444653    23.025063 C    1 RES 0.0000
  1015 C1015      3.777713    21.480628     6.536763 C    1 RES 0.0000
  1016 C1016      3.777713    21.480628    39.513363 C    1 RES 0.0000
  1017 C1017     22.816762    -5.444653     6.536763 C    1 RES 0.0000
  1018 C1018     22.816762    -5.444653    39.513363 C    1 RES 0.0000
  1019 C1019     32.336287    21.480628    23.025063 C    1 RES 0.0000
  1020 C1020     32.336287    21.480628    56.001663 C    1 RES 0.0000
  1021 N1021      3.013708     9.438623    10.112874 N    1 RES 0.0000
  1022 N1022      3.013708     9.438623    43.089474 N    1 RES 0.0000
  1023 N1023     31.572282     9.438623    26.601174 N    1 RES 0.0000
  1024 N1024     31.572282     9.438623    59.577774 N    1 RES 0.0000
  1025 N1025      3.806312    -0.304856    13.633023 N    1 RES 0.0000
  1026 N1026     13.325836    26.620425    30.121323 N    1 RES 0.0000
  1027 N1027     32.364885    -0.304856    30.121323 N    1 RES 0.0000
  1028 N1028     41.884410    26.620425    46.609623 N    1 RES 0.0000
  1029 N1029     11.315869     3.690244     7.666385 N    1 RES 0.0000
  1030 N1030     11.315869     3.690244    40.642985 N    1 RES 0.0000
  1031 N1031     20.835394    30.615525    24.154685 N    1 RES 0.0000
  1032 N1032     20.835394    30.615525    57.131285 N    1 RES 0.0000
  1033 N1033     12.298035    -3.690488     5.966643 N    1 RES 0.0000
  1034 N1034     12.298035    -3.690488    38.943243 N    1 RES 0.0000
  1035 N1035     21.817559    23.234793    22.454943 N    1 RES 0.0000
  1036 N1036     21.817559    23.234793    55.431543 N    1 RES 0.0000
  1037 N1037      0.619692    12.803903    27.009157 N    1 RES 0.0000
  1038 N1038     29.178265    12.803903    43.497457 N    1 RES 0.0000
  1039 N1039      6.516216    17.493021    26.584399 N    1 RES 0.0000
  1040 N1040     35.074790    17.493021    43.072699 N    1 RES 0.0000
  1041 N1041     23.080797    12.803290    18.935408 N    1 RES 0.0000
  1042 N1042     23.080797    12.803290    51.912008 N    1 RES 0.0000
  1043 N1043     -3.806677     0.304557    13.633732 N    1 RES 0.0000
  1044 N1044      5.712847    27.229838    30.122032 N    1 RES 0.0000
  1045 N1045     24.751896     0.304557    30.122032 N    1 RES 0.0000
  1046 N1046     34.271421    27.229838    46.610332 N    1 RES 0.0000
  1047 N1047     19.765225    17.492791    14.041247 N    1 RES 0.0000
  1048 N1048     19.765225    17.492791    47.017847 N    1 RES 0.0000
  1049 N1049     17.251516    -3.683717    24.137811 N    1 RES 0.0000
  1050 N1050     26.771041    23.241564    40.626111 N    1 RES 0.0000
  1051 N1051      4.857305    12.824861     3.520187 N    1 RES 0.0000
  1052 N1052      4.857305    12.824861    36.496787 N    1 RES 0.0000
  1053 N1053     33.415878    12.824861    20.008487 N    1 RES 0.0000
  1054 N1054     33.415878    12.824861    52.985087 N    1 RES 0.0000
  1055 N1055     13.690439     0.312541    29.456261 N    1 RES 0.0000
  1056 N1056     23.209964    27.237822    45.944561 N    1 RES 0.0000
  1057 N1057      6.505816    17.486658     6.375426 N    1 RES 0.0000
  1058 N1058      6.505816    17.486658    39.352026 N    1 RES 0.0000
  1059 N1059     35.064390    17.486658    22.863726 N    1 RES 0.0000
  1060 N1060     35.064390    17.486658    55.840326 N    1 RES 0.0000
  1061 N1061     -3.806312     0.304856    19.343577 N    1 RES 0.0000
  1062 N1062      5.713213    27.230137    35.831877 N    1 RES 0.0000
  1063 N1063     24.752262     0.304856    35.831877 N    1 RES 0.0000
  1064 N1064     34.271786    27.230137    52.320177 N    1 RES 0.0000
  1065 N1065     17.242704    -3.690244     8.821915 N    1 RES 0.0000
  1066 N1066     17.242704    -3.690244    41.798515 N    1 RES 0.0000
  1067 N1067     26.762228    23.235037    25.310215 N    1 RES 0.0000
  1068 N1068     26.762228    23.235037    58.286815 N    1 RES 0.0000
  1069 N1069     16.260538     3.690489    10.521657 N    1 RES 0.0000
  1070 N1070     16.260538     3.690489    43.498257 N    1 RES 0.0000
  1071 N1071     25.780063    30.615770    27.009957 N    1 RES 0.0000
  1072 N1072     25.780063    30.615770    59.986557 N    1 RES 0.0000
  1073 N1073      8.899833    14.121378    22.455744 N    1 RES 0.0000
  1074 N1074     37.458406    14.121378    38.944044 N    1 RES 0.0000
  1075 N1075      3.003308     9.432260    22.880501 N    1 RES 0.0000
  1076 N1076     31.561881     9.432260    39.368801 N    1 RES 0.0000
  1077 N1077     14.997300    14.121991    14.041192 N    1 RES 0.0000
  1078 N1078     14.997300    14.121991    47.017792 N    1 RES 0.0000
  1079 N1079      3.806677    -0.304557    19.342868 N    1 RES 0.0000
  1080 N1080     13.326202    26.620724    35.831168 N    1 RES 0.0000
  1081 N1081     32.365250    -0.304557    35.831168 N    1 RES 0.0000
  1082 N1082     41.884775    26.620724    52.319468 N    1 RES 0.0000
  1083 N1083     18.312872     9.432490    18.935353 N    1 RES 0.0000
  1084 N1084     18.312872     9.432490    51.911953 N    1 RES 0.0000
  1085 N1085     11.307057     3.683717    25.327090 N    1 RES 0.0000
  1086 N1086     20.826582    30.608998    41.815390 N    1 RES 0.0000
  1087 N1087      4.662220    14.100420    12.968113 N    1 RES 0.0000
  1088 N1088      4.662220    14.100420    45.944713 N    1 RES 0.0000
  1089 N1089     33.220793    14.100420    29.456413 N    1 RES 0.0000
  1090 N1090     33.220793    14.100420    62.433013 N    1 RES 0.0000
  1091 N1091     14.868133    -0.312541    20.008639 N    1 RES 0.0000
  1092 N1092     24.387658    26.612741    36.496939 N    1 RES 0.0000
  1093 N1093     10.193756    14.281540    15.312664 N    1 RES 0.0000
  1094 N1094     10.193756    14.281540    48.289264 N    1 RES 0.0000
  1095 N1095     38.752330    14.281540    31.800964 N    1 RES 0.0000
  1096 N1096     38.752330    14.281540    64.777564 N    1 RES 0.0000
  1097 N1097     16.862031     4.850710    17.663708 N    1 RES 0.0000
  1098 N1098     16.862031     4.850710    50.640308 N    1 RES 0.0000
  1099 N1099     26.381556    31.775991    34.152008 N    1 RES 0.0000
  1100 N1100     26.381556    31.775991    67.128608 N    1 RES 0.0000
  1101 N1101      4.830078     4.850551    10.717205 N    1 RES 0.0000
  1102 N1102      4.830078     4.850551    43.693805 N    1 RES 0.0000
  1103 N1103     14.349602    31.775832    27.205505 N    1 RES 0.0000
  1104 N1104     14.349602    31.775832    60.182105 N    1 RES 0.0000
  1105 N1105     33.388651     4.850551    27.205505 N    1 RES 0.0000
  1106 N1106     33.388651     4.850551    60.182105 N    1 RES 0.0000
  1107 N1107     42.908176    31.775832    43.693805 N    1 RES 0.0000
  1108 N1108     42.908176    31.775832    76.670405 N    1 RES 0.0000
  1109 N1109      6.190003     2.937078    22.262481 N    1 RES 0.0000
  1110 N1110     15.709527    29.862359    38.750781 N    1 RES 0.0000
  1111 N1111     34.748576     2.937078    38.750781 N    1 RES 0.0000
  1112 N1112     44.268100    29.862359    55.239081 N    1 RES 0.0000
  1113 N1113      6.189787     2.936991    10.713384 N    1 RES 0.0000
  1114 N1114      6.189787     2.936991    43.689984 N    1 RES 0.0000
  1115 N1115     15.709311    29.862272    27.201684 N    1 RES 0.0000
  1116 N1116     15.709311    29.862272    60.178284 N    1 RES 0.0000
  1117 N1117     34.748360     2.936991    27.201684 N    1 RES 0.0000
  1118 N1118     34.748360     2.936991    60.178284 N    1 RES 0.0000
  1119 N1119     44.267885    29.862272    43.689984 N    1 RES 0.0000
  1120 N1120     44.267885    29.862272    76.666584 N    1 RES 0.0000
  1121 N1121     16.863655     4.856964    15.316255 N    1 RES 0.0000
  1122 N1122     16.863655     4.856964    48.292855 N    1 RES 0.0000
  1123 N1123     26.383180    31.782246    31.804555 N    1 RES 0.0000
  1124 N1124     26.383180    31.782246    64.781155 N    1 RES 0.0000
  1125 N1125      4.829814     4.850252    22.259844 N    1 RES 0.0000
  1126 N1126     14.349338    31.775533    38.748144 N    1 RES 0.0000
  1127 N1127     33.388387     4.850252    38.748144 N    1 RES 0.0000
  1128 N1128     42.907912    31.775533    55.236444 N    1 RES 0.0000
  1129 N1129     10.200235    14.280772    17.660091 N    1 RES 0.0000
  1130 N1130     10.200235    14.280772    50.636691 N    1 RES 0.0000
  1131 N1131     38.758809    14.280772    34.148391 N    1 RES 0.0000
  1132 N1132     38.758809    14.280772    67.124991 N    1 RES 0.0000
  1133 N1133      6.862028     4.856617    23.434802 N    1 RES 0.0000
  1134 N1134     16.381552    31.781898    39.923102 N    1 RES 0.0000
  1135 N1135     35.420601     4.856617    39.923102 N    1 RES 0.0000
  1136 N1136     44.940126    31.781898    56.411402 N    1 RES 0.0000
  1137 N1137     16.186191     2.936841    16.484384 N    1 RES 0.0000
  1138 N1138     16.186191     2.936841    49.460984 N    1 RES 0.0000
  1139 N1139     25.705715    29.862122    32.972684 N    1 RES 0.0000
  1140 N1140     25.705715    29.862122    65.949284 N    1 RES 0.0000
  1141 N1141      8.164061    14.280218    16.491940 N    1 RES 0.0000
  1142 N1142      8.164061    14.280218    49.468540 N    1 RES 0.0000
  1143 N1143     36.722635    14.280218    32.980240 N    1 RES 0.0000
  1144 N1144     36.722635    14.280218    65.956840 N    1 RES 0.0000
  1145 N1145      6.861921     4.856790     9.541572 N    1 RES 0.0000
  1146 N1146      6.861921     4.856790    42.518172 N    1 RES 0.0000
  1147 N1147     16.381445    31.782071    26.029872 N    1 RES 0.0000
  1148 N1148     16.381445    31.782071    59.006472 N    1 RES 0.0000
  1149 N1149     35.420494     4.856790    26.029872 N    1 RES 0.0000
  1150 N1150     35.420494     4.856790    59.006472 N    1 RES 0.0000
  1151 N1151     44.940019    31.782071    42.518172 N    1 RES 0.0000
  1152 N1152     44.940019    31.782071    75.494772 N    1 RES 0.0000
  1153 N1153     11.694918    -4.856964     1.172045 N    1 RES 0.0000
  1154 N1154     11.694918    -4.856964    34.148645 N    1 RES 0.0000
  1155 N1155     21.214443    22.068317    17.660345 N    1 RES 0.0000
  1156 N1156     21.214443    22.068317    50.636945 N    1 RES 0.0000
  1157 N1157     -0.680711    12.644509    -1.171791 N    1 RES 0.0000
  1158 N1158     -0.680711    12.644509    31.804809 N    1 RES 0.0000
  1159 N1159     27.877862    12.644509    15.316509 N    1 RES 0.0000
  1160 N1160     27.877862    12.644509    48.293109 N    1 RES 0.0000
  1161 N1161     -6.189787    -2.936991   -10.713384 N    1 RES 0.0000
  1162 N1162     -6.189787    -2.936991    22.263216 N    1 RES 0.0000
  1163 N1163      3.329738    23.988290     5.774916 N    1 RES 0.0000
  1164 N1164      3.329738    23.988290    38.751516 N    1 RES 0.0000
  1165 N1165     22.368787    -2.936991     5.774916 N    1 RES 0.0000
  1166 N1166     22.368787    -2.936991    38.751516 N    1 RES 0.0000
  1167 N1167     31.888311    23.988290    22.263216 N    1 RES 0.0000
  1168 N1168     31.888311    23.988290    55.239816 N    1 RES 0.0000
  1169 N1169     -4.829814    -4.850252    10.716756 N    1 RES 0.0000
  1170 N1170      4.689711    22.075029    27.205056 N    1 RES 0.0000
  1171 N1171     23.728760    -4.850252    27.205056 N    1 RES 0.0000
  1172 N1172     33.248284    22.075029    43.693356 N    1 RES 0.0000
  1173 N1173     -4.830078    -4.850551   -10.717205 N    1 RES 0.0000
  1174 N1174     -4.830078    -4.850551    22.259395 N    1 RES 0.0000
  1175 N1175      4.689447    22.074730     5.771095 N    1 RES 0.0000
  1176 N1176      4.689447    22.074730    38.747695 N    1 RES 0.0000
  1177 N1177     23.728496    -4.850551     5.771095 N    1 RES 0.0000
  1178 N1178     23.728496    -4.850551    38.747695 N    1 RES 0.0000
  1179 N1179     33.248020    22.074730    22.259395 N    1 RES 0.0000
  1180 N1180     33.248020    22.074730    55.235995 N    1 RES 0.0000
  1181 N1181     -0.674232    12.643741     1.175636 N    1 RES 0.0000
  1182 N1182     -0.674232    12.643741    34.152236 N    1 RES 0.0000
  1183 N1183     27.884341    12.643741    17.663936 N    1 RES 0.0000
  1184 N1184     27.884341    12.643741    50.640536 N    1 RES 0.0000
  1185 N1185     -6.190003    -2.937078    10.714119 N    1 RES 0.0000
  1186 N1186      3.329522    23.988203    27.202419 N    1 RES 0.0000
  1187 N1187     22.368571    -2.937078    27.202419 N    1 RES 0.0000
  1188 N1188     31.888095    23.988203    43.690719 N    1 RES 0.0000
  1189 N1189     11.696542    -4.850710    -1.175408 N    1 RES 0.0000
  1190 N1190     11.696542    -4.850710    31.801192 N    1 RES 0.0000
  1191 N1191     21.216067    22.074572    15.312892 N    1 RES 0.0000
  1192 N1192     21.216067    22.074572    48.289492 N    1 RES 0.0000
  1193 N1193     -6.862028    -4.856617     9.541798 N    1 RES 0.0000
  1194 N1194      2.657497    22.068664    26.030098 N    1 RES 0.0000
  1195 N1195     21.696546    -4.856617    26.030098 N    1 RES 0.0000
  1196 N1196     31.216070    22.068664    42.518398 N    1 RES 0.0000
  1197 N1197      1.355463    12.645063    -0.003640 N    1 RES 0.0000
  1198 N1198      1.355463    12.645063    32.972960 N    1 RES 0.0000
  1199 N1199     29.914036    12.645063    16.484660 N    1 RES 0.0000
  1200 N1200     29.914036    12.645063    49.461260 N    1 RES 0.0000
  1201 N1201     12.372383    -2.936841     0.003916 N    1 RES 0.0000
  1202 N1202     12.372383    -2.936841    32.980516 N    1 RES 0.0000
  1203 N1203     21.891907    23.988440    16.492216 N    1 RES 0.0000
  1204 N1204     21.891907    23.988440    49.468816 N    1 RES 0.0000
  1205 N1205     -6.861921    -4.856790    -9.541572 N    1 RES 0.0000
  1206 N1206     -6.861921    -4.856790    23.435028 N    1 RES 0.0000
  1207 N1207      2.657603    22.068491     6.946728 N    1 RES 0.0000
  1208 N1208      2.657603    22.068491    39.923328 N    1 RES 0.0000
  1209 N1209     21.696652    -4.856790     6.946728 N    1 RES 0.0000
  1210 N1210     21.696652    -4.856790    39.923328 N    1 RES 0.0000
  1211 N1211     31.216177    22.068491    23.435028 N    1 RES 0.0000
  1212 N1212     31.216177    22.068491    56.411628 N    1 RES 0.0000
  1213 O1213      4.785416    13.814606    10.339630 O    1 RES 0.0000
  1214 O1214      4.785416    13.814606    43.316230 O    1 RES 0.0000
  1215 O1215     33.343989    13.814606    26.827930 O    1 RES 0.0000
  1216 O1216     33.343989    13.814606    59.804530 O    1 RES 0.0000
  1217 O1217     14.561561    -0.069090    22.625917 O    1 RES 0.0000
  1218 O1218     24.081085    26.856191    39.114217 O    1 RES 0.0000
  1219 O1219      5.985360    11.490780     7.972107 O    1 RES 0.0000
  1220 O1220      5.985360    11.490780    40.948707 O    1 RES 0.0000
  1221 O1221     34.543933    11.490780    24.460407 O    1 RES 0.0000
  1222 O1222     34.543933    11.490780    57.437007 O    1 RES 0.0000
  1223 O1223     12.907467     1.609963    24.951853 O    1 RES 0.0000
  1224 O1224     22.426991    28.535244    41.440153 O    1 RES 0.0000
  1225 O1225      0.489682     1.812791    15.096061 O    1 RES 0.0000
  1226 O1226     10.009206    28.738072    31.584361 O    1 RES 0.0000
  1227 O1227     29.048255     1.812791    31.584361 O    1 RES 0.0000
  1228 O1228     38.567779    28.738072    48.072661 O    1 RES 0.0000
  1229 O1229     18.698751    11.632622    17.516521 O    1 RES 0.0000
  1230 O1230     18.698751    11.632622    50.493121 O    1 RES 0.0000
  1231 O1231      1.644545    -0.093135    17.830824 O    1 RES 0.0000
  1232 O1232     11.164070    26.832146    34.319124 O    1 RES 0.0000
  1233 O1233     30.203119    -0.093135    34.319124 O    1 RES 0.0000
  1234 O1234     39.722643    26.832146    50.807424 O    1 RES 0.0000
  1235 O1235     17.200261    13.751801    15.460107 O    1 RES 0.0000
  1236 O1236     17.200261    13.751801    48.436707 O    1 RES 0.0000
  1237 O1237      4.039474    11.632628    23.923640 O    1 RES 0.0000
  1238 O1238     32.598048    11.632628    40.411940 O    1 RES 0.0000
  1239 O1239     15.211761     1.581537     9.314107 O    1 RES 0.0000
  1240 O1240     15.211761     1.581537    42.290707 O    1 RES 0.0000
  1241 O1241     24.731285    28.506818    25.802407 O    1 RES 0.0000
  1242 O1242     24.731285    28.506818    58.779007 O    1 RES 0.0000
  1243 O1243      6.569623    13.751810    23.654121 O    1 RES 0.0000
  1244 O1244     35.128196    13.751810    40.142421 O    1 RES 0.0000
  1245 O1245     12.137401    -0.142587     9.169527 O    1 RES 0.0000
  1246 O1246     12.137401    -0.142587    42.146127 O    1 RES 0.0000
  1247 O1247     21.656925    26.782694    25.657827 O    1 RES 0.0000
  1248 O1248     21.656925    26.782694    58.634427 O    1 RES 0.0000
  1249 O1249     14.009692     0.142652     5.926524 O    1 RES 0.0000
  1250 O1250     14.009692     0.142652    38.903124 O    1 RES 0.0000
  1251 O1251     23.529216    27.067933    22.414824 O    1 RES 0.0000
  1252 O1252     23.529216    27.067933    55.391424 O    1 RES 0.0000
  1253 O1253      4.807113    13.110173    27.041441 O    1 RES 0.0000
  1254 O1254     33.365686    13.110173    43.529741 O    1 RES 0.0000
  1255 O1255     15.672121    -1.581574     8.516745 O    1 RES 0.0000
  1256 O1256     15.672121    -1.581574    41.493345 O    1 RES 0.0000
  1257 O1257     25.191645    25.343707    25.005045 O    1 RES 0.0000
  1258 O1258     25.191645    25.343707    57.981645 O    1 RES 0.0000
  1259 O1259      3.561229    15.443111    24.417370 O    1 RES 0.0000
  1260 O1260     32.119802    15.443111    40.905670 O    1 RES 0.0000
  1261 O1261     -1.644570     0.093176    17.830827 O    1 RES 0.0000
  1262 O1262      7.874954    27.018457    34.319127 O    1 RES 0.0000
  1263 O1263     26.914003     0.093176    34.319127 O    1 RES 0.0000
  1264 O1264     36.433528    27.018457    50.807427 O    1 RES 0.0000
  1265 O1265     21.015054    13.110216    15.292800 O    1 RES 0.0000
  1266 O1266     21.015054    13.110216    48.269400 O    1 RES 0.0000
  1267 O1267     -0.489615    -1.812796    15.096011 O    1 RES 0.0000
  1268 O1268      9.029910    25.112485    31.584311 O    1 RES 0.0000
  1269 O1269     28.068959    -1.812796    31.584311 O    1 RES 0.0000
  1270 O1270     37.588483    25.112485    48.072611 O    1 RES 0.0000
  1271 O1271     19.365396    15.443091    17.683802 O    1 RES 0.0000
  1272 O1272     19.365396    15.443091    50.660402 O    1 RES 0.0000
  1273 O1273     16.437194     0.162132    25.612826 O    1 RES 0.0000
  1274 O1274     25.956719    27.087413    42.101126 O    1 RES 0.0000
  1275 O1275      2.730325    13.160913     7.123987 O    1 RES 0.0000
  1276 O1276      2.730325    13.160913    40.100587 O    1 RES 0.0000
  1277 O1277     31.288899    13.160913    23.612287 O    1 RES 0.0000
  1278 O1278     31.288899    13.160913    56.588887 O    1 RES 0.0000
  1279 O1279     13.272572    -1.790146    25.845971 O    1 RES 0.0000
  1280 O1280     22.792097    25.135136    42.334271 O    1 RES 0.0000
  1281 O1281      5.509258    15.303009     7.491174 O    1 RES 0.0000
  1282 O1282      5.509258    15.303009    40.467774 O    1 RES 0.0000
  1283 O1283     34.067832    15.303009    23.979474 O    1 RES 0.0000
  1284 O1284     34.067832    15.303009    56.956074 O    1 RES 0.0000
  1285 O1285      4.734108    13.110675     6.148670 O    1 RES 0.0000
  1286 O1286      4.734108    13.110675    39.125270 O    1 RES 0.0000
  1287 O1287     33.292682    13.110675    22.636970 O    1 RES 0.0000
  1288 O1288     33.292682    13.110675    55.613570 O    1 RES 0.0000
  1289 O1289     13.997013     0.069090    26.838984 O    1 RES 0.0000
  1290 O1290     23.516537    26.994371    43.327284 O    1 RES 0.0000
  1291 O1291      3.534165    15.434501     8.516193 O    1 RES 0.0000
  1292 O1292      3.534165    15.434501    41.492793 O    1 RES 0.0000
  1293 O1293     32.092738    15.434501    25.004493 O    1 RES 0.0000
  1294 O1294     32.092738    15.434501    57.981093 O    1 RES 0.0000
  1295 O1295     15.651107    -1.609963    24.513047 O    1 RES 0.0000
  1296 O1296     25.170631    25.315318    41.001347 O    1 RES 0.0000
  1297 O1297     -0.489682    -1.812791    17.880539 O    1 RES 0.0000
  1298 O1298      9.029843    25.112490    34.368839 O    1 RES 0.0000
  1299 O1299     28.068892    -1.812791    34.368839 O    1 RES 0.0000
  1300 O1300     37.588416    25.112490    50.857139 O    1 RES 0.0000
  1301 O1301     19.379347    15.292659    15.460080 O    1 RES 0.0000
  1302 O1302     19.379347    15.292659    48.436680 O    1 RES 0.0000
  1303 O1303     -1.644545     0.093135    15.145775 O    1 RES 0.0000
  1304 O1304      7.874979    27.018417    31.634075 O    1 RES 0.0000
  1305 O1305     26.914028     0.093135    31.634075 O    1 RES 0.0000
  1306 O1306     36.433553    27.018417    48.122375 O    1 RES 0.0000
  1307 O1307     20.877837    13.173480    17.516493 O    1 RES 0.0000
  1308 O1308     20.877837    13.173480    50.493093 O    1 RES 0.0000
  1309 O1309      5.480051    15.292653    25.541260 O    1 RES 0.0000
  1310 O1310     34.038624    15.292653    42.029560 O    1 RES 0.0000
  1311 O1311     13.346813    -1.581537     7.174193 O    1 RES 0.0000
  1312 O1312     13.346813    -1.581537    40.150793 O    1 RES 0.0000
  1313 O1313     22.866337    25.343744    23.662493 O    1 RES 0.0000
  1314 O1314     22.866337    25.343744    56.639093 O    1 RES 0.0000
  1315 O1315      2.949902    13.173471    25.810779 O    1 RES 0.0000
  1316 O1316     31.508475    13.173471    42.299079 O    1 RES 0.0000
  1317 O1317     16.421172     0.142588     7.318773 O    1 RES 0.0000
  1318 O1318     16.421172     0.142588    40.295373 O    1 RES 0.0000
  1319 O1319     25.940697    27.067869    23.807073 O    1 RES 0.0000
  1320 O1320     25.940697    27.067869    56.783673 O    1 RES 0.0000
  1321 O1321     14.548882    -0.142652    10.561776 O    1 RES 0.0000
  1322 O1322     14.548882    -0.142652    43.538376 O    1 RES 0.0000
  1323 O1323     24.068406    26.782629    27.050076 O    1 RES 0.0000
  1324 O1324     24.068406    26.782629    60.026676 O    1 RES 0.0000
  1325 O1325      4.712412    13.815108    22.423460 O    1 RES 0.0000
  1326 O1326     33.270985    13.815108    38.911760 O    1 RES 0.0000
  1327 O1327     12.886453     1.581574     7.971555 O    1 RES 0.0000
  1328 O1328     12.886453     1.581574    40.948155 O    1 RES 0.0000
  1329 O1329     22.405977    28.506855    24.459855 O    1 RES 0.0000
  1330 O1330     22.405977    28.506855    57.436455 O    1 RES 0.0000
  1331 O1331      5.958296    11.482170    25.047530 O    1 RES 0.0000
  1332 O1332     34.516870    11.482170    41.535830 O    1 RES 0.0000
  1333 O1333      1.644570    -0.093176    15.145773 O    1 RES 0.0000
  1334 O1334     11.164094    26.832106    31.634073 O    1 RES 0.0000
  1335 O1335     30.203143    -0.093176    31.634073 O    1 RES 0.0000
  1336 O1336     39.722668    26.832106    48.122373 O    1 RES 0.0000
  1337 O1337     17.063043    13.815065    17.683801 O    1 RES 0.0000
  1338 O1338     17.063043    13.815065    50.660401 O    1 RES 0.0000
  1339 O1339      0.489615     1.812796    17.880589 O    1 RES 0.0000
  1340 O1340     10.009139    28.738077    34.368889 O    1 RES 0.0000
  1341 O1341     29.048188     1.812796    34.368889 O    1 RES 0.0000
  1342 O1342     38.567712    28.738077    50.857189 O    1 RES 0.0000
  1343 O1343     18.712702    11.482190    15.292798 O    1 RES 0.0000
  1344 O1344     18.712702    11.482190    48.269398 O    1 RES 0.0000
  1345 O1345     12.121379    -0.162132    23.852074 O    1 RES 0.0000
  1346 O1346     21.640904    26.763149    40.340374 O    1 RES 0.0000
  1347 O1347      6.789199    13.764368     9.364313 O    1 RES 0.0000
  1348 O1348      6.789199    13.764368    42.340913 O    1 RES 0.0000
  1349 O1349     35.347773    13.764368    25.852613 O    1 RES 0.0000
  1350 O1350     35.347773    13.764368    58.829213 O    1 RES 0.0000
  1351 O1351     15.286001     1.790145    23.618929 O    1 RES 0.0000
  1352 O1352     24.805526    28.715426    40.107229 O    1 RES 0.0000
  1353 O1353      4.010266    11.622273     8.997126 O    1 RES 0.0000
  1354 O1354      4.010266    11.622273    41.973726 O    1 RES 0.0000
  1355 O1355     32.568840    11.622273    25.485426 O    1 RES 0.0000
  1356 O1356     32.568840    11.622273    58.462026 O    1 RES 0.0000
@<TRIPOS>BOND
     1      1   1213 1
     2      1   1275 1
     3      1   1291 1
     4      1   1353 1
     5      2   1214 1
     6      2   1276 1
     7      2   1292 1
     8      2   1354 1
     9      3   1215 1
    10      3   1277 1
    11      3   1293 1
    12      3   1355 1
    13      4   1216 1
    14      4   1278 1
    15      4   1294 1
    16      4   1356 1
    17      5   1217 1
    18      5   1279 1
    19      5   1295 1
    20      5   1345 1
    21      6   1218 1
    22      6   1280 1
    23      6   1296 1
    24      6   1346 1
    25      7   1219 1
    26      7   1281 1
    27      7   1285 1
    28      7   1347 1
    29      8   1220 1
    30      8   1282 1
    31      8   1286 1
    32      8   1348 1
    33      9   1221 1
    34      9   1283 1
    35      9   1287 1
    36      9   1349 1
    37     10   1222 1
    38     10   1284 1
    39     10   1288 1
    40     10   1350 1
    41     11   1223 1
    42     11   1273 1
    43     11   1289 1
    44     11   1351 1
    45     12   1224 1
    46     12   1274 1
    47     12   1290 1
    48     12   1352 1
    49     13   1225 1
    50     13   1261 1
    51     13   1303 1
    52     13   1339 1
    53     14   1226 1
    54     14   1262 1
    55     14   1304 1
    56     14   1340 1
    57     15   1227 1
    58     15   1263 1
    59     15   1305 1
    60     15   1341 1
    61     16   1228 1
    62     16   1264 1
    63     16   1306 1
    64     16   1342 1
    65     17   1229 1
    66     17   1271 1
    67     17   1307 1
    68     17   1337 1
    69     18   1230 1
    70     18   1272 1
    71     18   1308 1
    72     18   1338 1
    73     19   1231 1
    74     19   1267 1
    75     19   1297 1
    76     19   1333 1
    77     20   1232 1
    78     20   1268 1
    79     20   1298 1
    80     20   1334 1
    81     21   1233 1
    82     21   1269 1
    83     21   1299 1
    84     21   1335 1
    85     22   1234 1
    86     22   1270 1
    87     22   1300 1
    88     22   1336 1
    89     23   1235 1
    90     23   1265 1
    91     23   1301 1
    92     23   1343 1
    93     24   1236 1
    94     24   1266 1
    95     24   1302 1
    96     24   1344 1
    97     25   1237 1
    98     25   1259 1
    99     25   1315 1
   100     25   1325 1
   101     26   1238 1
   102     26   1260 1
   103     26   1316 1
   104     26   1326 1
   105     27   1239 1
   106     27   1249 1
   107     27   1317 1
   108     27   1327 1
   109     28   1240 1
   110     28   1250 1
   111     28   1318 1
   112     28   1328 1
   113     29   1241 1
   114     29   1251 1
   115     29   1319 1
   116     29   1329 1
   117     30   1242 1
   118     30   1252 1
   119     30   1320 1
   120     30   1330 1
   121     31   1243 1
   122     31   1253 1
   123     31   1309 1
   124     31   1331 1
   125     32   1244 1
   126     32   1254 1
   127     32   1310 1
   128     32   1332 1
   129     33   1245 1
   130     33   1255 1
   131     33   1311 1
   132     33   1321 1
   133     34   1246 1
   134     34   1256 1
   135     34   1312 1
   136     34   1322 1
   137     35   1247 1
   138     35   1257 1
   139     35   1313 1
   140     35   1323 1
   141     36   1248 1
   142     36   1258 1
   143     36   1314 1
   144     36   1324 1
   145     37    397 1
   146     38    398 1
   147     39    399 1
   148     40    400 1
   149     41    401 1
   150     42    402 1
   151     43    403 1
   152     44    404 1
   153     45    405 1
   154     46    406 1
   155     47    407 1
   156     48    408 1
   157     49    413 1
   158     50    414 1
   159     51    415 1
   160     52    416 1
   161     53    417 1
   162     54    418 1
   163     55    419 1
   164     56    420 1
   165     57    425 1
   166     58    426 1
   167     59    427 1
   168     60    428 1
   169     61    429 1
   170     62    430 1
   171     63    431 1
   172     64    432 1
   173     65    433 1
   174     66    434 1
   175     67    435 1
   176     68    436 1
   177     69    437 1
   178     70    438 1
   179     71    439 1
   180     72    440 1
   181     73    441 1
   182     74    442 1
   183     75    443 1
   184     76    444 1
   185     77    445 1
   186     78    446 1
   187     79    447 1
   188     80    448 1
   189     81    449 1
   190     82    450 1
   191     83    451 1
   192     84    452 1
   193     85    453 1
   194     86    454 1
   195     87    455 1
   196     88    456 1
   197     89    457 1
   198     90    458 1
   199     91    459 1
   200     92    460 1
   201     93    465 1
   202     94    466 1
   203     95    467 1
   204     96    468 1
   205     97    473 1
   206     98    474 1
   207     99    475 1
   208    100    476 1
   209    101    479 1
   210    102    480 1
   211    103    481 1
   212    104    482 1
   213    105    483 1
   214    106    484 1
   215    107    485 1
   216    108    486 1
   217    109    487 1
   218    110    488 1
   219    111    491 1
   220    112    492 1
   221    113    493 1
   222    114    494 1
   223    115    495 1
   224    116    496 1
   225    117    497 1
   226    118    498 1
   227    119    499 1
   228    120    500 1
   229    121    503 1
   230    122    504 1
   231    123    509 1
   232    124    510 1
   233    125    511 1
   234    126    512 1
   235    127    515 1
   236    128    516 1
   237    129    519 1
   238    130    520 1
   239    131    525 1
   240    132    526 1
   241    133    527 1
   242    134    528 1
   243    135    531 1
   244    136    532 1
   245    137    533 1
   246    138    534 1
   247    139    535 1
   248    140    536 1
   249    141    537 1
   250    142    538 1
   251    143    539 1
   252    144    540 1
   253    145    541 1
   254    146    542 1
   255    147    543 1
   256    148    544 1
   257    149    545 1
   258    150    546 1
   259    151    547 1
   260    152    548 1
   261    153    549 1
   262    154    550 1
   263    155    551 1
   264    156    552 1
   265    157    557 1
   266    158    558 1
   267    159    559 1
   268    160    560 1
   269    161    561 1
   270    162    562 1
   271    163    563 1
   272    164    564 1
   273    165    569 1
   274    166    570 1
   275    167    571 1
   276    168    572 1
   277    169    573 1
   278    170    574 1
   279    171    575 1
   280    172    576 1
   281    173    577 1
   282    174    578 1
   283    175    579 1
   284    176    580 1
   285    177    581 1
   286    178    582 1
   287    179    583 1
   288    180    584 1
   289    181    585 1
   290    182    586 1
   291    183    587 1
   292    184    588 1
   293    185    589 1
   294    186    590 1
   295    187    591 1
   296    188    592 1
   297    189    593 1
   298    190    594 1
   299    191    595 1
   300    192    596 1
   301    193    597 1
   302    194    598 1
   303    195    599 1
   304    196    600 1
   305    197    601 1
   306    198    602 1
   307    199    603 1
   308    200    604 1
   309    201    609 1
   310    202    610 1
   311    203    611 1
   312    204    612 1
   313    205    617 1
   314    206    618 1
   315    207    619 1
   316    208    620 1
   317    209    623 1
   318    210    624 1
   319    211    625 1
   320    212    626 1
   321    213    627 1
   322    214    628 1
   323    215    629 1
   324    216    630 1
   325    217    631 1
   326    218    632 1
   327    219    635 1
   328    220    636 1
   329    221    637 1
   330    222    638 1
   331    223    639 1
   332    224    640 1
   333    225    641 1
   334    226    642 1
   335    227    643 1
   336    228    644 1
   337    229    647 1
   338    230    648 1
   339    231    653 1
   340    232    654 1
   341    233    655 1
   342    234    656 1
   343    235    659 1
   344    236    660 1
   345    237    663 1
   346    238    664 1
   347    239    669 1
   348    240    670 1
   349    241    671 1
   350    242    672 1
   351    243    675 1
   352    244    676 1
   353    245    677 1
   354    246    678 1
   355    247    679 1
   356    248    680 1
   357    249    681 1
   358    250    682 1
   359    251    683 1
   360    252    684 1
   361    253   1087 1
   362    254   1088 1
   363    255   1089 1
   364    256   1090 1
   365    257   1087 1
   366    258   1088 1
   367    259   1089 1
   368    260   1090 1
   369    261   1077 1
   370    262   1078 1
   371    263   1077 1
   372    264   1078 1
   373    265   1073 1
   374    266   1074 1
   375    267   1073 1
   376    268   1074 1
   377    269   1091 1
   378    270   1092 1
   379    271   1091 1
   380    272   1092 1
   381    273   1083 1
   382    274   1084 1
   383    275   1083 1
   384    276   1084 1
   385    277   1069 1
   386    278   1070 1
   387    279   1071 1
   388    280   1072 1
   389    281   1069 1
   390    282   1070 1
   391    283   1071 1
   392    284   1072 1
   393    285   1021 1
   394    286   1022 1
   395    287   1023 1
   396    288   1024 1
   397    289   1021 1
   398    290   1022 1
   399    291   1023 1
   400    292   1024 1
   401    293   1025 1
   402    294   1026 1
   403    295   1027 1
   404    296   1028 1
   405    297   1025 1
   406    298   1026 1
   407    299   1027 1
   408    300   1028 1
   409    301   1029 1
   410    302   1030 1
   411    303   1031 1
   412    304   1032 1
   413    305   1029 1
   414    306   1030 1
   415    307   1031 1
   416    308   1032 1
   417    309   1085 1
   418    310   1086 1
   419    311   1085 1
   420    312   1086 1
   421    313   1079 1
   422    314   1080 1
   423    315   1081 1
   424    316   1082 1
   425    317   1079 1
   426    318   1080 1
   427    319   1081 1
   428    320   1082 1
   429    321   1075 1
   430    322   1076 1
   431    323   1075 1
   432    324   1076 1
   433    325   1033 1
   434    326   1034 1
   435    327   1035 1
   436    328   1036 1
   437    329   1033 1
   438    330   1034 1
   439    331   1035 1
   440    332   1036 1
   441    333   1047 1
   442    334   1048 1
   443    335   1047 1
   444    336   1048 1
   445    337   1055 1
   446    338   1056 1
   447    339   1055 1
   448    340   1056 1
   449    341   1037 1
   450    342   1038 1
   451    343   1037 1
   452    344   1038 1
   453    345   1041 1
   454    346   1042 1
   455    347   1041 1
   456    348   1042 1
   457    349   1051 1
   458    350   1052 1
   459    351   1053 1
   460    352   1054 1
   461    353   1051 1
   462    354   1052 1
   463    355   1053 1
   464    356   1054 1
   465    357   1065 1
   466    358   1066 1
   467    359   1067 1
   468    360   1068 1
   469    361   1065 1
   470    362   1066 1
   471    363   1067 1
   472    364   1068 1
   473    365   1061 1
   474    366   1062 1
   475    367   1063 1
   476    368   1064 1
   477    369   1061 1
   478    370   1062 1
   479    371   1063 1
   480    372   1064 1
   481    373   1057 1
   482    374   1058 1
   483    375   1059 1
   484    376   1060 1
   485    377   1057 1
   486    378   1058 1
   487    379   1059 1
   488    380   1060 1
   489    381   1039 1
   490    382   1040 1
   491    383   1039 1
   492    384   1040 1
   493    385   1043 1
   494    386   1044 1
   495    387   1045 1
   496    388   1046 1
   497    389   1043 1
   498    390   1044 1
   499    391   1045 1
   500    392   1046 1
   501    393   1049 1
   502    394   1050 1
   503    395   1049 1
   504    396   1050 1
   505    397    401 1
   506    397    689 1
   507    398    402 1
   508    398    690 1
   509    399    403 1
   510    399    691 1
   511    400    404 1
   512    400    692 1
   513    401    693 1
   514    402    694 1
   515    403    695 1
   516    404    696 1
   517    405    407 1
   518    405    703 1
   519    406    408 1
   520    406    704 1
   521    407    705 1
   522    408    706 1
   523    409    413 1
   524    409    715 1
   525    409   1021 1
   526    410    414 1
   527    410    716 1
   528    410   1022 1
   529    411    415 1
   530    411    717 1
   531    411   1023 1
   532    412    416 1
   533    412    718 1
   534    412   1024 1
   535    413    719 1
   536    414    720 1
   537    415    721 1
   538    416    722 1
   539    417    419 1
   540    417    733 1
   541    418    420 1
   542    418    734 1
   543    419    735 1
   544    420    736 1
   545    421    425 1
   546    421    745 1
   547    421   1025 1
   548    422    426 1
   549    422    746 1
   550    422   1026 1
   551    423    427 1
   552    423    747 1
   553    423   1027 1
   554    424    428 1
   555    424    748 1
   556    424   1028 1
   557    425    749 1
   558    426    750 1
   559    427    751 1
   560    428    752 1
   561    429    431 1
   562    429    763 1
   563    430    432 1
   564    430    764 1
   565    431    765 1
   566    432    766 1
   567    433    437 1
   568    433    775 1
   569    434    438 1
   570    434    776 1
   571    435    439 1
   572    435    777 1
   573    436    440 1
   574    436    778 1
   575    437    779 1
   576    438    780 1
   577    439    781 1
   578    440    782 1
   579    441    443 1
   580    441    789 1
   581    442    444 1
   582    442    790 1
   583    443    791 1
   584    444    792 1
   585    445    447 1
   586    445    799 1
   587    446    448 1
   588    446    800 1
   589    447    801 1
   590    448    802 1
   591    449    453 1
   592    449    811 1
   593    450    454 1
   594    450    812 1
   595    451    455 1
   596    451    813 1
   597    452    456 1
   598    452    814 1
   599    453    815 1
   600    454    816 1
   601    455    817 1
   602    456    818 1
   603    457    459 1
   604    457    825 1
   605    458    460 1
   606    458    826 1
   607    459    827 1
   608    460    828 1
   609    461    465 1
   610    461    837 1
   611    461   1029 1
   612    462    466 1
   613    462    838 1
   614    462   1030 1
   615    463    467 1
   616    463    839 1
   617    463   1031 1
   618    464    468 1
   619    464    840 1
   620    464   1032 1
   621    465    841 1
   622    466    842 1
   623    467    843 1
   624    468    844 1
   625    469    473 1
   626    469    857 1
   627    469   1033 1
   628    470    474 1
   629    470    858 1
   630    470   1034 1
   631    471    475 1
   632    471    859 1
   633    471   1035 1
   634    472    476 1
   635    472    860 1
   636    472   1036 1
   637    473    861 1
   638    474    862 1
   639    475    863 1
   640    476    864 1
   641    477    479 1
   642    477    871 1
   643    477   1037 1
   644    478    480 1
   645    478    872 1
   646    478   1038 1
   647    479    873 1
   648    480    874 1
   649    481    485 1
   650    481    883 1
   651    482    486 1
   652    482    884 1
   653    483    487 1
   654    483    885 1
   655    484    488 1
   656    484    886 1
   657    485    887 1
   658    486    888 1
   659    487    889 1
   660    488    890 1
   661    489    491 1
   662    489    901 1
   663    489   1039 1
   664    490    492 1
   665    490    902 1
   666    490   1040 1
   667    491    903 1
   668    492    904 1
   669    493    497 1
   670    493    913 1
   671    494    498 1
   672    494    914 1
   673    495    499 1
   674    495    915 1
   675    496    500 1
   676    496    916 1
   677    497    917 1
   678    498    918 1
   679    499    919 1
   680    500    920 1
   681    501    503 1
   682    501    931 1
   683    501   1041 1
   684    502    504 1
   685    502    932 1
   686    502   1042 1
   687    503    933 1
   688    504    934 1
   689    505    509 1
   690    505    943 1
   691    505   1043 1
   692    506    510 1
   693    506    944 1
   694    506   1044 1
   695    507    511 1
   696    507    945 1
   697    507   1045 1
   698    508    512 1
   699    508    946 1
   700    508   1046 1
   701    509    947 1
   702    510    948 1
   703    511    949 1
   704    512    950 1
   705    513    515 1
   706    513    957 1
   707    513   1047 1
   708    514    516 1
   709    514    958 1
   710    514   1048 1
   711    515    959 1
   712    516    960 1
   713    517    519 1
   714    517    967 1
   715    517   1049 1
   716    518    520 1
   717    518    968 1
   718    518   1050 1
   719    519    969 1
   720    520    970 1
   721    521    525 1
   722    521    979 1
   723    521   1051 1
   724    522    526 1
   725    522    980 1
   726    522   1052 1
   727    523    527 1
   728    523    981 1
   729    523   1053 1
   730    524    528 1
   731    524    982 1
   732    524   1054 1
   733    525    983 1
   734    526    984 1
   735    527    985 1
   736    528    986 1
   737    529    531 1
   738    529    993 1
   739    529   1055 1
   740    530    532 1
   741    530    994 1
   742    530   1056 1
   743    531    995 1
   744    532    996 1
   745    533    537 1
   746    533   1005 1
   747    534    538 1
   748    534   1006 1
   749    535    539 1
   750    535   1007 1
   751    536    540 1
   752    536   1008 1
   753    537   1009 1
   754    538   1010 1
   755    539   1011 1
   756    540   1012 1
   757    541    545 1
   758    541    979 1
   759    542    546 1
   760    542    980 1
   761    543    547 1
   762    543    981 1
   763    544    548 1
   764    544    982 1
   765    545    983 1
   766    546    984 1
   767    547    985 1
   768    548    986 1
   769    549    551 1
   770    549    993 1
   771    550    552 1
   772    550    994 1
   773    551    995 1
   774    552    996 1
   775    553    557 1
   776    553   1005 1
   777    553   1057 1
   778    554    558 1
   779    554   1006 1
   780    554   1058 1
   781    555    559 1
   782    555   1007 1
   783    555   1059 1
   784    556    560 1
   785    556   1008 1
   786    556   1060 1
   787    557   1009 1
   788    558   1010 1
   789    559   1011 1
   790    560   1012 1
   791    561    563 1
   792    561    967 1
   793    562    564 1
   794    562    968 1
   795    563    969 1
   796    564    970 1
   797    565    569 1
   798    565    913 1
   799    565   1061 1
   800    566    570 1
   801    566    914 1
   802    566   1062 1
   803    567    571 1
   804    567    915 1
   805    567   1063 1
   806    568    572 1
   807    568    916 1
   808    568   1064 1
   809    569    917 1
   810    570    918 1
   811    571    919 1
   812    572    920 1
   813    573    575 1
   814    573    957 1
   815    574    576 1
   816    574    958 1
   817    575    959 1
   818    576    960 1
   819    577    581 1
   820    577    943 1
   821    578    582 1
   822    578    944 1
   823    579    583 1
   824    579    945 1
   825    580    584 1
   826    580    946 1
   827    581    947 1
   828    582    948 1
   829    583    949 1
   830    584    950 1
   831    585    587 1
   832    585    931 1
   833    586    588 1
   834    586    932 1
   835    587    933 1
   836    588    934 1
   837    589    591 1
   838    589    901 1
   839    590    592 1
   840    590    902 1
   841    591    903 1
   842    592    904 1
   843    593    597 1
   844    593    857 1
   845    594    598 1
   846    594    858 1
   847    595    599 1
   848    595    859 1
   849    596    600 1
   850    596    860 1
   851    597    861 1
   852    598    862 1
   853    599    863 1
   854    600    864 1
   855    601    603 1
   856    601    871 1
   857    602    604 1
   858    602    872 1
   859    603    873 1
   860    604    874 1
   861    605    609 1
   862    605    883 1
   863    605   1065 1
   864    606    610 1
   865    606    884 1
   866    606   1066 1
   867    607    611 1
   868    607    885 1
   869    607   1067 1
   870    608    612 1
   871    608    886 1
   872    608   1068 1
   873    609    887 1
   874    610    888 1
   875    611    889 1
   876    612    890 1
   877    613    617 1
   878    613    811 1
   879    613   1069 1
   880    614    618 1
   881    614    812 1
   882    614   1070 1
   883    615    619 1
   884    615    813 1
   885    615   1071 1
   886    616    620 1
   887    616    814 1
   888    616   1072 1
   889    617    815 1
   890    618    816 1
   891    619    817 1
   892    620    818 1
   893    621    623 1
   894    621    825 1
   895    621   1073 1
   896    622    624 1
   897    622    826 1
   898    622   1074 1
   899    623    827 1
   900    624    828 1
   901    625    629 1
   902    625    837 1
   903    626    630 1
   904    626    838 1
   905    627    631 1
   906    627    839 1
   907    628    632 1
   908    628    840 1
   909    629    841 1
   910    630    842 1
   911    631    843 1
   912    632    844 1
   913    633    635 1
   914    633    799 1
   915    633   1075 1
   916    634    636 1
   917    634    800 1
   918    634   1076 1
   919    635    801 1
   920    636    802 1
   921    637    641 1
   922    637    745 1
   923    638    642 1
   924    638    746 1
   925    639    643 1
   926    639    747 1
   927    640    644 1
   928    640    748 1
   929    641    749 1
   930    642    750 1
   931    643    751 1
   932    644    752 1
   933    645    647 1
   934    645    789 1
   935    645   1077 1
   936    646    648 1
   937    646    790 1
   938    646   1078 1
   939    647    791 1
   940    648    792 1
   941    649    653 1
   942    649    775 1
   943    649   1079 1
   944    650    654 1
   945    650    776 1
   946    650   1080 1
   947    651    655 1
   948    651    777 1
   949    651   1081 1
   950    652    656 1
   951    652    778 1
   952    652   1082 1
   953    653    779 1
   954    654    780 1
   955    655    781 1
   956    656    782 1
   957    657    659 1
   958    657    763 1
   959    657   1083 1
   960    658    660 1
   961    658    764 1
   962    658   1084 1
   963    659    765 1
   964    660    766 1
   965    661    663 1
   966    661    733 1
   967    661   1085 1
   968    662    664 1
   969    662    734 1
   970    662   1086 1
   971    663    735 1
   972    664    736 1
   973    665    669 1
   974    665    689 1
   975    665   1087 1
   976    666    670 1
   977    666    690 1
   978    666   1088 1
   979    667    671 1
   980    667    691 1
   981    667   1089 1
   982    668    672 1
   983    668    692 1
   984    668   1090 1
   985    669    693 1
   986    670    694 1
   987    671    695 1
   988    672    696 1
   989    673    675 1
   990    673    703 1
   991    673   1091 1
   992    674    676 1
   993    674    704 1
   994    674   1092 1
   995    675    705 1
   996    676    706 1
   997    677    681 1
   998    677    715 1
   999    678    682 1
  1000    678    716 1
  1001    679    683 1
  1002    679    717 1
  1003    680    684 1
  1004    680    718 1
  1005    681    719 1
  1006    682    720 1
  1007    683    721 1
  1008    684    722 1
  1009    685    689 1
  1010    685   1213 1
  1011    685   1347 1
  1012    686    690 1
  1013    686   1214 1
  1014    686   1348 1
  1015    687    691 1
  1016    687   1215 1
  1017    687   1349 1
  1018    688    692 1
  1019    688   1216 1
  1020    688   1350 1
  1021    693    697 1
  1022    694    698 1
  1023    695    699 1
  1024    696    700 1
  1025    697   1093 1
  1026    697   1141 1
  1027    698   1094 1
  1028    698   1142 1
  1029    699   1095 1
  1030    699   1143 1
  1031    700   1096 1
  1032    700   1144 1
  1033    701    703 1
  1034    701   1217 1
  1035    701   1351 1
  1036    702    704 1
  1037    702   1218 1
  1038    702   1352 1
  1039    705    707 1
  1040    706    709 1
  1041    707   1097 1
  1042    707   1137 1
  1043    708   1098 1
  1044    708   1138 1
  1045    709   1099 1
  1046    709   1139 1
  1047    710   1100 1
  1048    710   1140 1
  1049    711    715 1
  1050    711   1219 1
  1051    711   1353 1
  1052    712    716 1
  1053    712   1220 1
  1054    712   1354 1
  1055    713    717 1
  1056    713   1221 1
  1057    713   1355 1
  1058    714    718 1
  1059    714   1222 1
  1060    714   1356 1
  1061    719    723 1
  1062    720    724 1
  1063    721    727 1
  1064    722    728 1
  1065    723   1101 1
  1066    723   1145 1
  1067    724   1102 1
  1068    724   1146 1
  1069    725   1103 1
  1070    725   1147 1
  1071    726   1104 1
  1072    726   1148 1
  1073    727   1105 1
  1074    727   1149 1
  1075    728   1106 1
  1076    728   1150 1
  1077    729   1107 1
  1078    729   1151 1
  1079    730   1108 1
  1080    730   1152 1
  1081    731    733 1
  1082    731   1223 1
  1083    731   1345 1
  1084    732    734 1
  1085    732   1224 1
  1086    732   1346 1
  1087    735    737 1
  1088    736    738 1
  1089    737   1109 1
  1090    737   1133 1
  1091    738   1110 1
  1092    738   1134 1
  1093    739   1111 1
  1094    739   1135 1
  1095    740   1112 1
  1096    740   1136 1
  1097    741    745 1
  1098    741   1225 1
  1099    741   1333 1
  1100    742    746 1
  1101    742   1226 1
  1102    742   1334 1
  1103    743    747 1
  1104    743   1227 1
  1105    743   1335 1
  1106    744    748 1
  1107    744   1228 1
  1108    744   1336 1
  1109    749    753 1
  1110    750    755 1
  1111    751    757 1
  1112    752    759 1
  1113    753   1101 1
  1114    753   1113 1
  1115    754   1102 1
  1116    754   1114 1
  1117    755   1103 1
  1118    755   1115 1
  1119    756   1104 1
  1120    756   1116 1
  1121    757   1105 1
  1122    757   1117 1
  1123    758   1106 1
  1124    758   1118 1
  1125    759   1107 1
  1126    759   1119 1
  1127    760   1108 1
  1128    760   1120 1
  1129    761    763 1
  1130    761   1229 1
  1131    761   1343 1
  1132    762    764 1
  1133    762   1230 1
  1134    762   1344 1
  1135    765    767 1
  1136    766    768 1
  1137    767   1097 1
  1138    767   1121 1
  1139    768   1098 1
  1140    768   1122 1
  1141    769   1099 1
  1142    769   1123 1
  1143    770   1100 1
  1144    770   1124 1
  1145    771    775 1
  1146    771   1231 1
  1147    771   1339 1
  1148    772    776 1
  1149    772   1232 1
  1150    772   1340 1
  1151    773    777 1
  1152    773   1233 1
  1153    773   1341 1
  1154    774    778 1
  1155    774   1234 1
  1156    774   1342 1
  1157    779    783 1
  1158    780    784 1
  1159    781    785 1
  1160    782    786 1
  1161    783   1109 1
  1162    783   1125 1
  1163    784   1110 1
  1164    784   1126 1
  1165    785   1111 1
  1166    785   1127 1
  1167    786   1112 1
  1168    786   1128 1
  1169    787    789 1
  1170    787   1235 1
  1171    787   1337 1
  1172    788    790 1
  1173    788   1236 1
  1174    788   1338 1
  1175    791    793 1
  1176    792    794 1
  1177    793   1093 1
  1178    793   1129 1
  1179    794   1094 1
  1180    794   1130 1
  1181    795   1095 1
  1182    795   1131 1
  1183    796   1096 1
  1184    796   1132 1
  1185    797    799 1
  1186    797   1237 1
  1187    797   1331 1
  1188    798    800 1
  1189    798   1238 1
  1190    798   1332 1
  1191    801    803 1
  1192    802    805 1
  1193    803   1125 1
  1194    803   1133 1
  1195    804   1126 1
  1196    804   1134 1
  1197    805   1127 1
  1198    805   1135 1
  1199    806   1128 1
  1200    806   1136 1
  1201    807    811 1
  1202    807   1239 1
  1203    807   1321 1
  1204    808    812 1
  1205    808   1240 1
  1206    808   1322 1
  1207    809    813 1
  1208    809   1241 1
  1209    809   1323 1
  1210    810    814 1
  1211    810   1242 1
  1212    810   1324 1
  1213    815    819 1
  1214    816    820 1
  1215    817    821 1
  1216    818    822 1
  1217    819   1121 1
  1218    819   1137 1
  1219    820   1122 1
  1220    820   1138 1
  1221    821   1123 1
  1222    821   1139 1
  1223    822   1124 1
  1224    822   1140 1
  1225    823    825 1
  1226    823   1243 1
  1227    823   1325 1
  1228    824    826 1
  1229    824   1244 1
  1230    824   1326 1
  1231    827    829 1
  1232    828    831 1
  1233    829   1129 1
  1234    829   1141 1
  1235    830   1130 1
  1236    830   1142 1
  1237    831   1131 1
  1238    831   1143 1
  1239    832   1132 1
  1240    832   1144 1
  1241    833    837 1
  1242    833   1245 1
  1243    833   1327 1
  1244    834    838 1
  1245    834   1246 1
  1246    834   1328 1
  1247    835    839 1
  1248    835   1247 1
  1249    835   1329 1
  1250    836    840 1
  1251    836   1248 1
  1252    836   1330 1
  1253    841    845 1
  1254    842    846 1
  1255    843    847 1
  1256    844    848 1
  1257    845   1113 1
  1258    845   1145 1
  1259    846   1114 1
  1260    846   1146 1
  1261    847   1115 1
  1262    847   1147 1
  1263    848   1116 1
  1264    848   1148 1
  1265    849   1117 1
  1266    849   1149 1
  1267    850   1118 1
  1268    850   1150 1
  1269    851   1119 1
  1270    851   1151 1
  1271    852   1120 1
  1272    852   1152 1
  1273    853    857 1
  1274    853   1249 1
  1275    853   1311 1
  1276    854    858 1
  1277    854   1250 1
  1278    854   1312 1
  1279    855    859 1
  1280    855   1251 1
  1281    855   1313 1
  1282    856    860 1
  1283    856   1252 1
  1284    856   1314 1
  1285    861    865 1
  1286    862    866 1
  1287    863    867 1
  1288    864    868 1
  1289    865   1153 1
  1290    865   1201 1
  1291    866   1154 1
  1292    866   1202 1
  1293    867   1155 1
  1294    867   1203 1
  1295    868   1156 1
  1296    868   1204 1
  1297    869    871 1
  1298    869   1253 1
  1299    869   1315 1
  1300    870    872 1
  1301    870   1254 1
  1302    870   1316 1
  1303    873    876 1
  1304    874    878 1
  1305    875   1157 1
  1306    875   1197 1
  1307    876   1158 1
  1308    876   1198 1
  1309    877   1159 1
  1310    877   1199 1
  1311    878   1160 1
  1312    878   1200 1
  1313    879    883 1
  1314    879   1255 1
  1315    879   1317 1
  1316    880    884 1
  1317    880   1256 1
  1318    880   1318 1
  1319    881    885 1
  1320    881   1257 1
  1321    881   1319 1
  1322    882    886 1
  1323    882   1258 1
  1324    882   1320 1
  1325    887    895 1
  1326    888    896 1
  1327    889    897 1
  1328    890    898 1
  1329    891   1161 1
  1330    891   1205 1
  1331    892   1162 1
  1332    892   1206 1
  1333    893   1163 1
  1334    893   1207 1
  1335    894   1164 1
  1336    894   1208 1
  1337    895   1165 1
  1338    895   1209 1
  1339    896   1166 1
  1340    896   1210 1
  1341    897   1167 1
  1342    897   1211 1
  1343    898   1168 1
  1344    898   1212 1
  1345    899    901 1
  1346    899   1259 1
  1347    899   1309 1
  1348    900    902 1
  1349    900   1260 1
  1350    900   1310 1
  1351    903    906 1
  1352    904    908 1
  1353    905   1169 1
  1354    905   1193 1
  1355    906   1170 1
  1356    906   1194 1
  1357    907   1171 1
  1358    907   1195 1
  1359    908   1172 1
  1360    908   1196 1
  1361    909    913 1
  1362    909   1261 1
  1363    909   1297 1
  1364    910    914 1
  1365    910   1262 1
  1366    910   1298 1
  1367    911    915 1
  1368    911   1263 1
  1369    911   1299 1
  1370    912    916 1
  1371    912   1264 1
  1372    912   1300 1
  1373    917    922 1
  1374    918    924 1
  1375    919    926 1
  1376    920    928 1
  1377    921   1161 1
  1378    921   1173 1
  1379    922   1162 1
  1380    922   1174 1
  1381    923   1163 1
  1382    923   1175 1
  1383    924   1164 1
  1384    924   1176 1
  1385    925   1165 1
  1386    925   1177 1
  1387    926   1166 1
  1388    926   1178 1
  1389    927   1167 1
  1390    927   1179 1
  1391    928   1168 1
  1392    928   1180 1
  1393    929    931 1
  1394    929   1265 1
  1395    929   1307 1
  1396    930    932 1
  1397    930   1266 1
  1398    930   1308 1
  1399    933    937 1
  1400    934    938 1
  1401    935   1157 1
  1402    935   1181 1
  1403    936   1158 1
  1404    936   1182 1
  1405    937   1159 1
  1406    937   1183 1
  1407    938   1160 1
  1408    938   1184 1
  1409    939    943 1
  1410    939   1267 1
  1411    939   1303 1
  1412    940    944 1
  1413    940   1268 1
  1414    940   1304 1
  1415    941    945 1
  1416    941   1269 1
  1417    941   1305 1
  1418    942    946 1
  1419    942   1270 1
  1420    942   1306 1
  1421    947    951 1
  1422    948    952 1
  1423    949    953 1
  1424    950    954 1
  1425    951   1169 1
  1426    951   1185 1
  1427    952   1170 1
  1428    952   1186 1
  1429    953   1171 1
  1430    953   1187 1
  1431    954   1172 1
  1432    954   1188 1
  1433    955    957 1
  1434    955   1271 1
  1435    955   1301 1
  1436    956    958 1
  1437    956   1272 1
  1438    956   1302 1
  1439    959    963 1
  1440    960    964 1
  1441    961   1153 1
  1442    961   1189 1
  1443    962   1154 1
  1444    962   1190 1
  1445    963   1155 1
  1446    963   1191 1
  1447    964   1156 1
  1448    964   1192 1
  1449    965    967 1
  1450    965   1273 1
  1451    965   1295 1
  1452    966    968 1
  1453    966   1274 1
  1454    966   1296 1
  1455    969    973 1
  1456    970    974 1
  1457    971   1185 1
  1458    971   1193 1
  1459    972   1186 1
  1460    972   1194 1
  1461    973   1187 1
  1462    973   1195 1
  1463    974   1188 1
  1464    974   1196 1
  1465    975    979 1
  1466    975   1275 1
  1467    975   1285 1
  1468    976    980 1
  1469    976   1276 1
  1470    976   1286 1
  1471    977    981 1
  1472    977   1277 1
  1473    977   1287 1
  1474    978    982 1
  1475    978   1278 1
  1476    978   1288 1
  1477    983    987 1
  1478    984    988 1
  1479    985    989 1
  1480    986    990 1
  1481    987   1181 1
  1482    987   1197 1
  1483    988   1182 1
  1484    988   1198 1
  1485    989   1183 1
  1486    989   1199 1
  1487    990   1184 1
  1488    990   1200 1
  1489    991    993 1
  1490    991   1279 1
  1491    991   1289 1
  1492    992    994 1
  1493    992   1280 1
  1494    992   1290 1
  1495    995    998 1
  1496    996   1000 1
  1497    997   1189 1
  1498    997   1201 1
  1499    998   1190 1
  1500    998   1202 1
  1501    999   1191 1
  1502    999   1203 1
  1503   1000   1192 1
  1504   1000   1204 1
  1505   1001   1005 1
  1506   1001   1281 1
  1507   1001   1291 1
  1508   1002   1006 1
  1509   1002   1282 1
  1510   1002   1292 1
  1511   1003   1007 1
  1512   1003   1283 1
  1513   1003   1293 1
  1514   1004   1008 1
  1515   1004   1284 1
  1516   1004   1294 1
  1517   1009   1015 1
  1518   1010   1016 1
  1519   1011   1019 1
  1520   1012   1020 1
  1521   1013   1173 1
  1522   1013   1205 1
  1523   1014   1174 1
  1524   1014   1206 1
  1525   1015   1175 1
  1526   1015   1207 1
  1527   1016   1176 1
  1528   1016   1208 1
  1529   1017   1177 1
  1530   1017   1209 1
  1531   1018   1178 1
  1532   1018   1210 1
  1533   1019   1179 1
  1534   1019   1211 1
  1535   1020   1180 1
  1536   1020   1212 1
